/*---------------------------------------------------------------------------*\
  =========                 |
  \\      /  F ield         | OpenFOAM: The Open Source CFD Toolbox
   \\    /   O peration     | Website:  https://openfoam.org
    \\  /    A nd           | Version:  9
     \\/     M anipulation  |
\*---------------------------------------------------------------------------*/
Build  : 9-c96968adf6d8
Exec   : icoFoam
Date   : Mar 11 2026
Time   : 10:55:55
Host   : "ych-MS-7D88"
PID    : 302164
I/O    : uncollated
Case   : /home/ych/桌面/第二篇论文/Data/OF_data/cavity
nProcs : 1
sigFpe : Enabling floating point exception trapping (FOAM_SIGFPE).
fileModificationChecking : Monitoring run-time modified files using timeStampMaster (fileModificationSkew 10)
allowSystemOperations : Allowing user-supplied system call operations

// * * * * * * * * * * * * * * * * * * * * * * * * * * * * * * * * * * * * * //
Create time

Create mesh for time = 0

Reading transportProperties

Reading field p

Reading field U

Reading/calculating face flux field phi


Starting time loop

Time = 0.0005

Courant Number mean: 0 max: 0
smoothSolver:  Solving for Ux, Initial residual = 1, Final residual = 9.75225e-06, No Iterations 68
smoothSolver:  Solving for Uy, Initial residual = 0, Final residual = 0, No Iterations 0
DICPCG:  Solving for p, Initial residual = 1, Final residual = 0.046606, No Iterations 158
time step continuity errors : sum local = 0.000102758, global = 1.22555e-19, cumulative = 1.22555e-19
DICPCG:  Solving for p, Initial residual = 0.669167, Final residual = 9.77939e-07, No Iterations 225
time step continuity errors : sum local = 3.30176e-09, global = -1.98149e-19, cumulative = -7.55937e-20
ExecutionTime = 0.09 s  ClockTime = 0 s

Time = 0.001

Courant Number mean: 0.285818 max: 5.1458
smoothSolver:  Solving for Ux, Initial residual = 0.124197, Final residual = 9.54924e-06, No Iterations 71
smoothSolver:  Solving for Uy, Initial residual = 0.372716, Final residual = 9.00815e-06, No Iterations 83
DICPCG:  Solving for p, Initial residual = 0.742475, Final residual = 0.0357112, No Iterations 77
time step continuity errors : sum local = 0.00016442, global = 3.5668e-19, cumulative = 2.81087e-19
DICPCG:  Solving for p, Initial residual = 0.679, Final residual = 8.18405e-07, No Iterations 224
time step continuity errors : sum local = 3.46214e-09, global = 3.53398e-19, cumulative = 6.34485e-19
ExecutionTime = 0.16 s  ClockTime = 0 s

Time = 0.0015

Courant Number mean: 0.432326 max: 5.84554
smoothSolver:  Solving for Ux, Initial residual = 0.049725, Final residual = 9.55143e-06, No Iterations 62
smoothSolver:  Solving for Uy, Initial residual = 0.182184, Final residual = 9.02827e-06, No Iterations 77
DICPCG:  Solving for p, Initial residual = 0.759683, Final residual = 0.0369239, No Iterations 142
time step continuity errors : sum local = 0.000153031, global = 5.22778e-20, cumulative = 6.86762e-19
DICPCG:  Solving for p, Initial residual = 0.512064, Final residual = 9.94854e-07, No Iterations 212
time step continuity errors : sum local = 5.69657e-09, global = -1.18367e-19, cumulative = 5.68395e-19
ExecutionTime = 0.23 s  ClockTime = 0 s

Time = 0.002

Courant Number mean: 0.52111 max: 5.93115
smoothSolver:  Solving for Ux, Initial residual = 0.0356753, Final residual = 9.47969e-06, No Iterations 62
smoothSolver:  Solving for Uy, Initial residual = 0.105994, Final residual = 9.4014e-06, No Iterations 72
DICPCG:  Solving for p, Initial residual = 0.632502, Final residual = 0.0262841, No Iterations 142
time step continuity errors : sum local = 9.35805e-05, global = 4.29704e-19, cumulative = 9.98099e-19
DICPCG:  Solving for p, Initial residual = 0.488657, Final residual = 9.46172e-07, No Iterations 214
time step continuity errors : sum local = 3.98092e-09, global = -2.30604e-19, cumulative = 7.67494e-19
ExecutionTime = 0.3 s  ClockTime = 0 s

Time = 0.0025

Courant Number mean: 0.589828 max: 6.00493
smoothSolver:  Solving for Ux, Initial residual = 0.0236811, Final residual = 9.66845e-06, No Iterations 59
smoothSolver:  Solving for Uy, Initial residual = 0.0663573, Final residual = 9.65795e-06, No Iterations 70
DICPCG:  Solving for p, Initial residual = 0.5566, Final residual = 0.027563, No Iterations 133
time step continuity errors : sum local = 7.76121e-05, global = -1.15772e-19, cumulative = 6.51722e-19
DICPCG:  Solving for p, Initial residual = 0.482078, Final residual = 9.39919e-07, No Iterations 217
time step continuity errors : sum local = 2.80103e-09, global = -1.88239e-19, cumulative = 4.63483e-19
ExecutionTime = 0.37 s  ClockTime = 1 s

Time = 0.003

Courant Number mean: 0.645953 max: 6.04165
smoothSolver:  Solving for Ux, Initial residual = 0.0160892, Final residual = 9.81639e-06, No Iterations 56
smoothSolver:  Solving for Uy, Initial residual = 0.0558783, Final residual = 9.05691e-06, No Iterations 70
DICPCG:  Solving for p, Initial residual = 0.423533, Final residual = 0.0206193, No Iterations 69
time step continuity errors : sum local = 4.98288e-05, global = 5.36013e-21, cumulative = 4.68843e-19
DICPCG:  Solving for p, Initial residual = 0.394689, Final residual = 9.38681e-07, No Iterations 211
time step continuity errors : sum local = 2.17931e-09, global = -7.68072e-19, cumulative = -2.99229e-19
ExecutionTime = 0.43 s  ClockTime = 1 s

Time = 0.0035

Courant Number mean: 0.693771 max: 6.06925
smoothSolver:  Solving for Ux, Initial residual = 0.013719, Final residual = 8.97243e-06, No Iterations 56
smoothSolver:  Solving for Uy, Initial residual = 0.0421007, Final residual = 9.06783e-06, No Iterations 68
DICPCG:  Solving for p, Initial residual = 0.346799, Final residual = 0.0171111, No Iterations 120
time step continuity errors : sum local = 3.6371e-05, global = -1.59083e-19, cumulative = -4.58312e-19
DICPCG:  Solving for p, Initial residual = 0.289604, Final residual = 8.37028e-07, No Iterations 209
time step continuity errors : sum local = 1.97186e-09, global = -5.45183e-20, cumulative = -5.12831e-19
ExecutionTime = 0.5 s  ClockTime = 1 s

Time = 0.004

Courant Number mean: 0.735432 max: 6.09351
smoothSolver:  Solving for Ux, Initial residual = 0.0134001, Final residual = 9.38673e-06, No Iterations 57
smoothSolver:  Solving for Uy, Initial residual = 0.0327055, Final residual = 9.17803e-06, No Iterations 66
DICPCG:  Solving for p, Initial residual = 0.262993, Final residual = 0.0125365, No Iterations 140
time step continuity errors : sum local = 2.40616e-05, global = 3.2375e-19, cumulative = -1.8908e-19
DICPCG:  Solving for p, Initial residual = 0.22561, Final residual = 8.20662e-07, No Iterations 209
time step continuity errors : sum local = 1.7197e-09, global = 1.27974e-19, cumulative = -6.11065e-20
ExecutionTime = 0.56 s  ClockTime = 1 s

Time = 0.0045

Courant Number mean: 0.772274 max: 6.11216
smoothSolver:  Solving for Ux, Initial residual = 0.0102062, Final residual = 8.97683e-06, No Iterations 55
smoothSolver:  Solving for Uy, Initial residual = 0.0269961, Final residual = 9.88292e-06, No Iterations 64
DICPCG:  Solving for p, Initial residual = 0.1983, Final residual = 0.00990571, No Iterations 73
time step continuity errors : sum local = 1.9896e-05, global = 2.80332e-19, cumulative = 2.19225e-19
DICPCG:  Solving for p, Initial residual = 0.185101, Final residual = 7.73948e-07, No Iterations 207
time step continuity errors : sum local = 1.36686e-09, global = 2.9099e-19, cumulative = 5.10215e-19
ExecutionTime = 0.62 s  ClockTime = 1 s

Time = 0.005

Courant Number mean: 0.805217 max: 6.12543
smoothSolver:  Solving for Ux, Initial residual = 0.0108834, Final residual = 9.25937e-06, No Iterations 56
smoothSolver:  Solving for Uy, Initial residual = 0.0242034, Final residual = 9.81963e-06, No Iterations 63
DICPCG:  Solving for p, Initial residual = 0.186736, Final residual = 0.00846348, No Iterations 149
time step continuity errors : sum local = 1.5157e-05, global = 8.18049e-19, cumulative = 1.32826e-18
DICPCG:  Solving for p, Initial residual = 0.150772, Final residual = 8.61362e-07, No Iterations 211
time step continuity errors : sum local = 1.81708e-09, global = -4.50446e-19, cumulative = 8.77817e-19
ExecutionTime = 0.69 s  ClockTime = 1 s

Time = 0.0055

Courant Number mean: 0.835203 max: 6.13883
smoothSolver:  Solving for Ux, Initial residual = 0.00848999, Final residual = 9.84684e-06, No Iterations 53
smoothSolver:  Solving for Uy, Initial residual = 0.0227508, Final residual = 9.33464e-06, No Iterations 63
DICPCG:  Solving for p, Initial residual = 0.159854, Final residual = 0.00766373, No Iterations 147
time step continuity errors : sum local = 1.31093e-05, global = -1.50704e-19, cumulative = 7.27113e-19
DICPCG:  Solving for p, Initial residual = 0.143222, Final residual = 9.30741e-07, No Iterations 207
time step continuity errors : sum local = 1.68172e-09, global = -2.73536e-19, cumulative = 4.53577e-19
ExecutionTime = 0.75 s  ClockTime = 1 s

Time = 0.006

Courant Number mean: 0.862388 max: 6.14724
smoothSolver:  Solving for Ux, Initial residual = 0.0073612, Final residual = 9.13286e-06, No Iterations 53
smoothSolver:  Solving for Uy, Initial residual = 0.0190019, Final residual = 9.21331e-06, No Iterations 62
DICPCG:  Solving for p, Initial residual = 0.131689, Final residual = 0.00654682, No Iterations 143
time step continuity errors : sum local = 1.09582e-05, global = 1.31654e-19, cumulative = 5.85231e-19
DICPCG:  Solving for p, Initial residual = 0.122991, Final residual = 9.39828e-07, No Iterations 209
time step continuity errors : sum local = 1.60062e-09, global = -6.56189e-19, cumulative = -7.09584e-20
ExecutionTime = 0.82 s  ClockTime = 1 s

Time = 0.0065

Courant Number mean: 0.887533 max: 6.15649
smoothSolver:  Solving for Ux, Initial residual = 0.00669913, Final residual = 9.64197e-06, No Iterations 52
smoothSolver:  Solving for Uy, Initial residual = 0.0171017, Final residual = 9.61099e-06, No Iterations 61
DICPCG:  Solving for p, Initial residual = 0.11161, Final residual = 0.00471924, No Iterations 147
time step continuity errors : sum local = 7.70941e-06, global = -5.2777e-19, cumulative = -5.98729e-19
DICPCG:  Solving for p, Initial residual = 0.104073, Final residual = 9.57027e-07, No Iterations 207
time step continuity errors : sum local = 1.58724e-09, global = -4.32068e-19, cumulative = -1.0308e-18
ExecutionTime = 0.89 s  ClockTime = 1 s

Time = 0.007

Courant Number mean: 0.910735 max: 6.16363
smoothSolver:  Solving for Ux, Initial residual = 0.00604437, Final residual = 8.92157e-06, No Iterations 52
smoothSolver:  Solving for Uy, Initial residual = 0.0155431, Final residual = 9.88851e-06, No Iterations 60
DICPCG:  Solving for p, Initial residual = 0.099287, Final residual = 0.00422007, No Iterations 73
time step continuity errors : sum local = 8.00924e-06, global = 1.1504e-19, cumulative = -9.15757e-19
DICPCG:  Solving for p, Initial residual = 0.094817, Final residual = 9.08956e-07, No Iterations 208
time step continuity errors : sum local = 1.46799e-09, global = -3.16969e-19, cumulative = -1.23273e-18
ExecutionTime = 0.94 s  ClockTime = 1 s

Time = 0.0075

Courant Number mean: 0.932394 max: 6.17081
smoothSolver:  Solving for Ux, Initial residual = 0.00565058, Final residual = 9.11699e-06, No Iterations 51
smoothSolver:  Solving for Uy, Initial residual = 0.0163008, Final residual = 9.04433e-06, No Iterations 61
DICPCG:  Solving for p, Initial residual = 0.111278, Final residual = 0.00553596, No Iterations 140
time step continuity errors : sum local = 9.128e-06, global = -9.70796e-19, cumulative = -2.20352e-18
DICPCG:  Solving for p, Initial residual = 0.0979282, Final residual = 8.6755e-07, No Iterations 207
time step continuity errors : sum local = 1.5532e-09, global = 4.95038e-19, cumulative = -1.70848e-18
ExecutionTime = 1.01 s  ClockTime = 1 s

Time = 0.008

Courant Number mean: 0.952634 max: 6.17639
smoothSolver:  Solving for Ux, Initial residual = 0.00556241, Final residual = 9.41255e-06, No Iterations 51
smoothSolver:  Solving for Uy, Initial residual = 0.0140102, Final residual = 9.57681e-06, No Iterations 59
DICPCG:  Solving for p, Initial residual = 0.103535, Final residual = 0.00496989, No Iterations 145
time step continuity errors : sum local = 8.14339e-06, global = 3.50856e-19, cumulative = -1.35763e-18
DICPCG:  Solving for p, Initial residual = 0.0962111, Final residual = 8.35918e-07, No Iterations 207
time step continuity errors : sum local = 1.41155e-09, global = 6.49664e-19, cumulative = -7.07963e-19
ExecutionTime = 1.07 s  ClockTime = 1 s

Time = 0.0085

Courant Number mean: 0.971544 max: 6.18241
smoothSolver:  Solving for Ux, Initial residual = 0.00494568, Final residual = 9.56118e-06, No Iterations 50
smoothSolver:  Solving for Uy, Initial residual = 0.0126407, Final residual = 9.07648e-06, No Iterations 59
DICPCG:  Solving for p, Initial residual = 0.0920911, Final residual = 0.00459987, No Iterations 123
time step continuity errors : sum local = 7.43823e-06, global = 2.05885e-19, cumulative = -5.02078e-19
DICPCG:  Solving for p, Initial residual = 0.0866021, Final residual = 9.77981e-07, No Iterations 207
time step continuity errors : sum local = 1.59483e-09, global = 7.84135e-19, cumulative = 2.82057e-19
ExecutionTime = 1.13 s  ClockTime = 1 s

Time = 0.009

Courant Number mean: 0.989344 max: 6.18653
smoothSolver:  Solving for Ux, Initial residual = 0.00471803, Final residual = 9.48372e-06, No Iterations 50
smoothSolver:  Solving for Uy, Initial residual = 0.0118278, Final residual = 9.71227e-06, No Iterations 58
DICPCG:  Solving for p, Initial residual = 0.0813625, Final residual = 0.00402404, No Iterations 143
time step continuity errors : sum local = 6.4355e-06, global = -6.18813e-20, cumulative = 2.20176e-19
DICPCG:  Solving for p, Initial residual = 0.077038, Final residual = 8.35996e-07, No Iterations 206
time step continuity errors : sum local = 1.34451e-09, global = 1.80885e-19, cumulative = 4.01061e-19
ExecutionTime = 1.2 s  ClockTime = 1 s

Time = 0.0095

Courant Number mean: 1.00615 max: 6.19107
smoothSolver:  Solving for Ux, Initial residual = 0.00423901, Final residual = 9.57432e-06, No Iterations 49
smoothSolver:  Solving for Uy, Initial residual = 0.0108744, Final residual = 8.94753e-06, No Iterations 58
DICPCG:  Solving for p, Initial residual = 0.0762932, Final residual = 0.00334077, No Iterations 70
time step continuity errors : sum local = 5.93537e-06, global = 1.90281e-19, cumulative = 5.91341e-19
DICPCG:  Solving for p, Initial residual = 0.0727468, Final residual = 9.56335e-07, No Iterations 197
time step continuity errors : sum local = 1.52135e-09, global = 2.77326e-19, cumulative = 8.68667e-19
ExecutionTime = 1.25 s  ClockTime = 1 s

Time = 0.01

Courant Number mean: 1.02203 max: 6.19488
smoothSolver:  Solving for Ux, Initial residual = 0.00430911, Final residual = 9.86809e-06, No Iterations 49
smoothSolver:  Solving for Uy, Initial residual = 0.0101238, Final residual = 9.15566e-06, No Iterations 57
DICPCG:  Solving for p, Initial residual = 0.0773123, Final residual = 0.00385815, No Iterations 125
time step continuity errors : sum local = 6.19497e-06, global = 5.5011e-19, cumulative = 1.41878e-18
DICPCG:  Solving for p, Initial residual = 0.0703487, Final residual = 8.03767e-07, No Iterations 206
time step continuity errors : sum local = 1.35078e-09, global = -8.97989e-20, cumulative = 1.32898e-18
ExecutionTime = 1.31 s  ClockTime = 1 s

Time = 0.0105

Courant Number mean: 1.03707 max: 6.19838
smoothSolver:  Solving for Ux, Initial residual = 0.00396279, Final residual = 9.02432e-06, No Iterations 49
smoothSolver:  Solving for Uy, Initial residual = 0.0101546, Final residual = 9.2757e-06, No Iterations 57
DICPCG:  Solving for p, Initial residual = 0.0785193, Final residual = 0.003658, No Iterations 145
time step continuity errors : sum local = 5.86465e-06, global = -2.44159e-19, cumulative = 1.08482e-18
DICPCG:  Solving for p, Initial residual = 0.0739928, Final residual = 8.28731e-07, No Iterations 205
time step continuity errors : sum local = 1.34431e-09, global = 2.11772e-19, cumulative = 1.29659e-18
ExecutionTime = 1.38 s  ClockTime = 2 s

Time = 0.011

Courant Number mean: 1.05138 max: 6.20178
smoothSolver:  Solving for Ux, Initial residual = 0.00356378, Final residual = 9.33673e-06, No Iterations 48
smoothSolver:  Solving for Uy, Initial residual = 0.00915728, Final residual = 9.57375e-06, No Iterations 56
DICPCG:  Solving for p, Initial residual = 0.0674173, Final residual = 0.00325922, No Iterations 122
time step continuity errors : sum local = 5.15355e-06, global = 8.02771e-19, cumulative = 2.09936e-18
DICPCG:  Solving for p, Initial residual = 0.0638722, Final residual = 9.10716e-07, No Iterations 204
time step continuity errors : sum local = 1.44856e-09, global = -4.91235e-19, cumulative = 1.60813e-18
ExecutionTime = 1.44 s  ClockTime = 2 s

Time = 0.0115

Courant Number mean: 1.06497 max: 6.20449
smoothSolver:  Solving for Ux, Initial residual = 0.00339275, Final residual = 8.99179e-06, No Iterations 48
smoothSolver:  Solving for Uy, Initial residual = 0.00848957, Final residual = 8.99413e-06, No Iterations 56
DICPCG:  Solving for p, Initial residual = 0.0622351, Final residual = 0.00310204, No Iterations 61
time step continuity errors : sum local = 5.12913e-06, global = -5.51895e-19, cumulative = 1.05623e-18
DICPCG:  Solving for p, Initial residual = 0.0593743, Final residual = 8.08365e-07, No Iterations 204
time step continuity errors : sum local = 1.27825e-09, global = 1.8765e-19, cumulative = 1.24388e-18
ExecutionTime = 1.49 s  ClockTime = 2 s

Time = 0.012

Courant Number mean: 1.07791 max: 6.20681
smoothSolver:  Solving for Ux, Initial residual = 0.00322764, Final residual = 9.69109e-06, No Iterations 47
smoothSolver:  Solving for Uy, Initial residual = 0.00847717, Final residual = 8.85851e-06, No Iterations 56
DICPCG:  Solving for p, Initial residual = 0.0620681, Final residual = 0.00305366, No Iterations 143
time step continuity errors : sum local = 4.84144e-06, global = 7.78757e-19, cumulative = 2.02264e-18
DICPCG:  Solving for p, Initial residual = 0.0586883, Final residual = 9.49958e-07, No Iterations 204
time step continuity errors : sum local = 1.52466e-09, global = 2.72267e-19, cumulative = 2.29491e-18
ExecutionTime = 1.55 s  ClockTime = 2 s

Time = 0.0125

Courant Number mean: 1.09029 max: 6.21003
smoothSolver:  Solving for Ux, Initial residual = 0.00311536, Final residual = 9.374e-06, No Iterations 47
smoothSolver:  Solving for Uy, Initial residual = 0.00773998, Final residual = 9.19366e-06, No Iterations 55
DICPCG:  Solving for p, Initial residual = 0.0619511, Final residual = 0.00283565, No Iterations 70
time step continuity errors : sum local = 5.26237e-06, global = -1.38406e-18, cumulative = 9.10843e-19
DICPCG:  Solving for p, Initial residual = 0.0591409, Final residual = 7.85079e-07, No Iterations 204
time step continuity errors : sum local = 1.24386e-09, global = -1.02418e-19, cumulative = 8.08425e-19
ExecutionTime = 1.61 s  ClockTime = 2 s

Time = 0.013

Courant Number mean: 1.1021 max: 6.21169
smoothSolver:  Solving for Ux, Initial residual = 0.00337577, Final residual = 8.9841e-06, No Iterations 48
smoothSolver:  Solving for Uy, Initial residual = 0.00743474, Final residual = 9.53194e-06, No Iterations 54
DICPCG:  Solving for p, Initial residual = 0.0675616, Final residual = 0.00316975, No Iterations 125
time step continuity errors : sum local = 5.09728e-06, global = -1.15226e-18, cumulative = -3.43831e-19
DICPCG:  Solving for p, Initial residual = 0.0607752, Final residual = 9.90902e-07, No Iterations 205
time step continuity errors : sum local = 1.68971e-09, global = -1.23704e-19, cumulative = -4.67535e-19
ExecutionTime = 1.67 s  ClockTime = 2 s

Time = 0.0135

Courant Number mean: 1.11343 max: 6.21434
smoothSolver:  Solving for Ux, Initial residual = 0.00298391, Final residual = 9.94783e-06, No Iterations 46
smoothSolver:  Solving for Uy, Initial residual = 0.00762057, Final residual = 9.92883e-06, No Iterations 54
DICPCG:  Solving for p, Initial residual = 0.063722, Final residual = 0.00314313, No Iterations 140
time step continuity errors : sum local = 5.0351e-06, global = -6.65922e-20, cumulative = -5.34127e-19
DICPCG:  Solving for p, Initial residual = 0.0594262, Final residual = 9.74569e-07, No Iterations 204
time step continuity errors : sum local = 1.57662e-09, global = 6.1778e-19, cumulative = 8.36526e-20
ExecutionTime = 1.73 s  ClockTime = 2 s

Time = 0.014

Courant Number mean: 1.12426 max: 6.21601
smoothSolver:  Solving for Ux, Initial residual = 0.00270406, Final residual = 9.31048e-06, No Iterations 46
smoothSolver:  Solving for Uy, Initial residual = 0.00684442, Final residual = 9.13881e-06, No Iterations 54
DICPCG:  Solving for p, Initial residual = 0.0588013, Final residual = 0.00278001, No Iterations 50
time step continuity errors : sum local = 5.11423e-06, global = 2.24683e-19, cumulative = 3.08336e-19
DICPCG:  Solving for p, Initial residual = 0.0558363, Final residual = 8.04601e-07, No Iterations 204
time step continuity errors : sum local = 1.27219e-09, global = -1.10102e-18, cumulative = -7.92681e-19
ExecutionTime = 1.78 s  ClockTime = 2 s

Time = 0.0145

Courant Number mean: 1.13466 max: 6.21778
smoothSolver:  Solving for Ux, Initial residual = 0.00259767, Final residual = 9.68806e-06, No Iterations 45
smoothSolver:  Solving for Uy, Initial residual = 0.00736991, Final residual = 9.77718e-06, No Iterations 54
DICPCG:  Solving for p, Initial residual = 0.0643536, Final residual = 0.00309241, No Iterations 122
time step continuity errors : sum local = 4.94929e-06, global = -3.68551e-21, cumulative = -7.96367e-19
DICPCG:  Solving for p, Initial residual = 0.0586635, Final residual = 9.25545e-07, No Iterations 205
time step continuity errors : sum local = 1.55783e-09, global = 4.00612e-19, cumulative = -3.95754e-19
ExecutionTime = 1.84 s  ClockTime = 2 s

Time = 0.015

Courant Number mean: 1.14468 max: 6.21921
smoothSolver:  Solving for Ux, Initial residual = 0.00273156, Final residual = 9.26775e-06, No Iterations 46
smoothSolver:  Solving for Uy, Initial residual = 0.00639278, Final residual = 9.32544e-06, No Iterations 53
DICPCG:  Solving for p, Initial residual = 0.0543617, Final residual = 0.00261084, No Iterations 144
time step continuity errors : sum local = 4.1427e-06, global = -1.14191e-18, cumulative = -1.53766e-18
DICPCG:  Solving for p, Initial residual = 0.0510579, Final residual = 9.70069e-07, No Iterations 203
time step continuity errors : sum local = 1.56423e-09, global = -1.19254e-19, cumulative = -1.65692e-18
ExecutionTime = 1.9 s  ClockTime = 2 s

Time = 0.0155

Courant Number mean: 1.15428 max: 6.22112
smoothSolver:  Solving for Ux, Initial residual = 0.00240249, Final residual = 9.41405e-06, No Iterations 45
smoothSolver:  Solving for Uy, Initial residual = 0.00595093, Final residual = 9.05327e-06, No Iterations 53
DICPCG:  Solving for p, Initial residual = 0.0483366, Final residual = 0.00218271, No Iterations 121
time step continuity errors : sum local = 3.44794e-06, global = -9.86644e-19, cumulative = -2.64356e-18
DICPCG:  Solving for p, Initial residual = 0.0457414, Final residual = 8.39163e-07, No Iterations 203
time step continuity errors : sum local = 1.33056e-09, global = -1.0118e-18, cumulative = -3.65536e-18
ExecutionTime = 1.96 s  ClockTime = 2 s

Time = 0.016

Courant Number mean: 1.16349 max: 6.22217
smoothSolver:  Solving for Ux, Initial residual = 0.00229506, Final residual = 9.0985e-06, No Iterations 45
smoothSolver:  Solving for Uy, Initial residual = 0.0055191, Final residual = 9.54031e-06, No Iterations 52
DICPCG:  Solving for p, Initial residual = 0.0423122, Final residual = 0.00203417, No Iterations 138
time step continuity errors : sum local = 3.19848e-06, global = 4.99534e-19, cumulative = -3.15583e-18
DICPCG:  Solving for p, Initial residual = 0.0403836, Final residual = 9.79678e-07, No Iterations 202
time step continuity errors : sum local = 1.54404e-09, global = -7.23518e-19, cumulative = -3.87935e-18
ExecutionTime = 2.02 s  ClockTime = 2 s

Time = 0.0165

Courant Number mean: 1.17237 max: 6.22335
smoothSolver:  Solving for Ux, Initial residual = 0.00219943, Final residual = 9.9426e-06, No Iterations 44
smoothSolver:  Solving for Uy, Initial residual = 0.00540968, Final residual = 9.40046e-06, No Iterations 52
DICPCG:  Solving for p, Initial residual = 0.0420676, Final residual = 0.00209871, No Iterations 55
time step continuity errors : sum local = 3.64557e-06, global = -9.29548e-19, cumulative = -4.80889e-18
DICPCG:  Solving for p, Initial residual = 0.0404813, Final residual = 9.13779e-07, No Iterations 202
time step continuity errors : sum local = 1.43172e-09, global = 8.27868e-19, cumulative = -3.98103e-18
ExecutionTime = 2.07 s  ClockTime = 2 s

Time = 0.017

Courant Number mean: 1.18095 max: 6.22479
smoothSolver:  Solving for Ux, Initial residual = 0.00228257, Final residual = 9.05518e-06, No Iterations 45
smoothSolver:  Solving for Uy, Initial residual = 0.00516982, Final residual = 9.90352e-06, No Iterations 51
DICPCG:  Solving for p, Initial residual = 0.0459085, Final residual = 0.00215926, No Iterations 144
time step continuity errors : sum local = 3.39859e-06, global = 1.08824e-18, cumulative = -2.89279e-18
DICPCG:  Solving for p, Initial residual = 0.0429148, Final residual = 9.17809e-07, No Iterations 204
time step continuity errors : sum local = 1.48662e-09, global = 2.76073e-19, cumulative = -2.61671e-18
ExecutionTime = 2.14 s  ClockTime = 2 s

Time = 0.0175

Courant Number mean: 1.18921 max: 6.22591
smoothSolver:  Solving for Ux, Initial residual = 0.00210132, Final residual = 9.33811e-06, No Iterations 44
smoothSolver:  Solving for Uy, Initial residual = 0.00510708, Final residual = 9.79674e-06, No Iterations 51
DICPCG:  Solving for p, Initial residual = 0.040362, Final residual = 0.00177174, No Iterations 122
time step continuity errors : sum local = 2.78725e-06, global = 4.76094e-19, cumulative = -2.14062e-18
DICPCG:  Solving for p, Initial residual = 0.0382506, Final residual = 9.47289e-07, No Iterations 202
time step continuity errors : sum local = 1.49824e-09, global = 2.97997e-19, cumulative = -1.84262e-18
ExecutionTime = 2.19 s  ClockTime = 2 s

Time = 0.018

Courant Number mean: 1.19718 max: 6.22682
smoothSolver:  Solving for Ux, Initial residual = 0.00199024, Final residual = 9.03245e-06, No Iterations 44
smoothSolver:  Solving for Uy, Initial residual = 0.0047167, Final residual = 9.23367e-06, No Iterations 51
DICPCG:  Solving for p, Initial residual = 0.0362147, Final residual = 0.00164704, No Iterations 142
time step continuity errors : sum local = 2.58043e-06, global = -2.61342e-19, cumulative = -2.10396e-18
DICPCG:  Solving for p, Initial residual = 0.0343579, Final residual = 8.04282e-07, No Iterations 202
time step continuity errors : sum local = 1.26533e-09, global = -1.37062e-18, cumulative = -3.47458e-18
ExecutionTime = 2.26 s  ClockTime = 2 s

Time = 0.0185

Courant Number mean: 1.20487 max: 6.22779
smoothSolver:  Solving for Ux, Initial residual = 0.00192069, Final residual = 9.9235e-06, No Iterations 43
smoothSolver:  Solving for Uy, Initial residual = 0.00451716, Final residual = 8.96478e-06, No Iterations 51
DICPCG:  Solving for p, Initial residual = 0.0344979, Final residual = 0.00170018, No Iterations 57
time step continuity errors : sum local = 2.85586e-06, global = -4.66054e-20, cumulative = -3.52119e-18
DICPCG:  Solving for p, Initial residual = 0.0330248, Final residual = 8.36704e-07, No Iterations 201
time step continuity errors : sum local = 1.30761e-09, global = 8.77306e-19, cumulative = -2.64388e-18
ExecutionTime = 2.31 s  ClockTime = 2 s

Time = 0.019

Courant Number mean: 1.21231 max: 6.22875
smoothSolver:  Solving for Ux, Initial residual = 0.00191739, Final residual = 9.8652e-06, No Iterations 43
smoothSolver:  Solving for Uy, Initial residual = 0.00442937, Final residual = 9.73452e-06, No Iterations 50
DICPCG:  Solving for p, Initial residual = 0.0357331, Final residual = 0.00162951, No Iterations 143
time step continuity errors : sum local = 2.5471e-06, global = 2.28118e-19, cumulative = -2.41577e-18
DICPCG:  Solving for p, Initial residual = 0.0337397, Final residual = 9.39534e-07, No Iterations 202
time step continuity errors : sum local = 1.49179e-09, global = -2.43348e-19, cumulative = -2.65911e-18
ExecutionTime = 2.37 s  ClockTime = 3 s

Time = 0.0195

Courant Number mean: 1.21952 max: 6.2298
smoothSolver:  Solving for Ux, Initial residual = 0.00182292, Final residual = 9.3567e-06, No Iterations 43
smoothSolver:  Solving for Uy, Initial residual = 0.00427608, Final residual = 9.45865e-06, No Iterations 50
DICPCG:  Solving for p, Initial residual = 0.0318905, Final residual = 0.00149669, No Iterations 121
time step continuity errors : sum local = 2.35035e-06, global = -3.72508e-19, cumulative = -3.03162e-18
DICPCG:  Solving for p, Initial residual = 0.0304769, Final residual = 8.44275e-07, No Iterations 194
time step continuity errors : sum local = 1.32328e-09, global = 8.30512e-19, cumulative = -2.20111e-18
ExecutionTime = 2.42 s  ClockTime = 3 s

Time = 0.02

Courant Number mean: 1.22648 max: 6.23043
smoothSolver:  Solving for Ux, Initial residual = 0.00173262, Final residual = 8.99332e-06, No Iterations 43
smoothSolver:  Solving for Uy, Initial residual = 0.00402835, Final residual = 8.97665e-06, No Iterations 50
DICPCG:  Solving for p, Initial residual = 0.0295247, Final residual = 0.00147264, No Iterations 62
time step continuity errors : sum local = 2.64583e-06, global = 7.9929e-19, cumulative = -1.40182e-18
DICPCG:  Solving for p, Initial residual = 0.0283223, Final residual = 8.03032e-07, No Iterations 200
time step continuity errors : sum local = 1.25514e-09, global = 5.83702e-19, cumulative = -8.18119e-19
ExecutionTime = 2.47 s  ClockTime = 3 s

Time = 0.0205

Courant Number mean: 1.23321 max: 6.2311
smoothSolver:  Solving for Ux, Initial residual = 0.00167209, Final residual = 9.36154e-06, No Iterations 42
smoothSolver:  Solving for Uy, Initial residual = 0.00450357, Final residual = 9.89768e-06, No Iterations 50
DICPCG:  Solving for p, Initial residual = 0.0383294, Final residual = 0.00183812, No Iterations 125
time step continuity errors : sum local = 2.89701e-06, global = 1.89469e-18, cumulative = 1.07658e-18
DICPCG:  Solving for p, Initial residual = 0.0358059, Final residual = 8.68434e-07, No Iterations 203
time step continuity errors : sum local = 1.40543e-09, global = -3.39645e-19, cumulative = 7.36931e-19
ExecutionTime = 2.53 s  ClockTime = 3 s

Time = 0.021

Courant Number mean: 1.23976 max: 6.23204
smoothSolver:  Solving for Ux, Initial residual = 0.00178513, Final residual = 9.12124e-06, No Iterations 43
smoothSolver:  Solving for Uy, Initial residual = 0.00389745, Final residual = 9.50218e-06, No Iterations 49
DICPCG:  Solving for p, Initial residual = 0.0336623, Final residual = 0.0016078, No Iterations 140
time step continuity errors : sum local = 2.52226e-06, global = -1.09293e-19, cumulative = 6.27638e-19
DICPCG:  Solving for p, Initial residual = 0.0318311, Final residual = 9.43663e-07, No Iterations 196
time step continuity errors : sum local = 1.49552e-09, global = 2.83928e-19, cumulative = 9.11566e-19
ExecutionTime = 2.59 s  ClockTime = 3 s

Time = 0.0215

Courant Number mean: 1.24609 max: 6.23292
smoothSolver:  Solving for Ux, Initial residual = 0.00161163, Final residual = 9.42283e-06, No Iterations 42
smoothSolver:  Solving for Uy, Initial residual = 0.00367512, Final residual = 9.21898e-06, No Iterations 49
DICPCG:  Solving for p, Initial residual = 0.0302366, Final residual = 0.00147019, No Iterations 61
time step continuity errors : sum local = 2.72794e-06, global = 6.32996e-19, cumulative = 1.54456e-18
DICPCG:  Solving for p, Initial residual = 0.0289125, Final residual = 8.76673e-07, No Iterations 191
time step continuity errors : sum local = 1.37017e-09, global = 1.65674e-19, cumulative = 1.71024e-18
ExecutionTime = 2.64 s  ClockTime = 3 s

Time = 0.022

Courant Number mean: 1.25222 max: 6.23325
smoothSolver:  Solving for Ux, Initial residual = 0.00177087, Final residual = 9.08557e-06, No Iterations 43
smoothSolver:  Solving for Uy, Initial residual = 0.00354761, Final residual = 9.68373e-06, No Iterations 48
DICPCG:  Solving for p, Initial residual = 0.0327999, Final residual = 0.0015035, No Iterations 125
time step continuity errors : sum local = 2.36083e-06, global = 8.59484e-19, cumulative = 2.56972e-18
DICPCG:  Solving for p, Initial residual = 0.0301536, Final residual = 9.18875e-07, No Iterations 198
time step continuity errors : sum local = 1.49567e-09, global = -2.84906e-19, cumulative = 2.28481e-18
ExecutionTime = 2.71 s  ClockTime = 3 s

Time = 0.0225

Courant Number mean: 1.25817 max: 6.23402
smoothSolver:  Solving for Ux, Initial residual = 0.00155402, Final residual = 9.93632e-06, No Iterations 41
smoothSolver:  Solving for Uy, Initial residual = 0.00362076, Final residual = 9.91508e-06, No Iterations 48
DICPCG:  Solving for p, Initial residual = 0.0305887, Final residual = 0.00133128, No Iterations 139
time step continuity errors : sum local = 2.09873e-06, global = -1.61745e-19, cumulative = 2.12307e-18
DICPCG:  Solving for p, Initial residual = 0.0287715, Final residual = 9.18857e-07, No Iterations 201
time step continuity errors : sum local = 1.45262e-09, global = 4.22923e-19, cumulative = 2.54599e-18
ExecutionTime = 2.77 s  ClockTime = 3 s

Time = 0.023

Courant Number mean: 1.26393 max: 6.23426
smoothSolver:  Solving for Ux, Initial residual = 0.0014743, Final residual = 9.78547e-06, No Iterations 41
smoothSolver:  Solving for Uy, Initial residual = 0.00332422, Final residual = 9.39527e-06, No Iterations 48
DICPCG:  Solving for p, Initial residual = 0.0276246, Final residual = 0.00135939, No Iterations 122
time step continuity errors : sum local = 2.12999e-06, global = 4.5173e-19, cumulative = 2.99772e-18
DICPCG:  Solving for p, Initial residual = 0.0263752, Final residual = 9.43476e-07, No Iterations 199
time step continuity errors : sum local = 1.48339e-09, global = -3.98527e-19, cumulative = 2.59919e-18
ExecutionTime = 2.82 s  ClockTime = 3 s

Time = 0.0235

Courant Number mean: 1.26952 max: 6.23491
smoothSolver:  Solving for Ux, Initial residual = 0.00142857, Final residual = 9.58118e-06, No Iterations 41
smoothSolver:  Solving for Uy, Initial residual = 0.0031675, Final residual = 9.07681e-06, No Iterations 48
DICPCG:  Solving for p, Initial residual = 0.0253117, Final residual = 0.00110734, No Iterations 60
time step continuity errors : sum local = 1.85585e-06, global = 1.1783e-18, cumulative = 3.77749e-18
DICPCG:  Solving for p, Initial residual = 0.0241033, Final residual = 9.95494e-07, No Iterations 199
time step continuity errors : sum local = 1.55553e-09, global = 1.04573e-18, cumulative = 4.82323e-18
ExecutionTime = 2.87 s  ClockTime = 3 s

Time = 0.024

Courant Number mean: 1.27495 max: 6.23535
smoothSolver:  Solving for Ux, Initial residual = 0.00144443, Final residual = 9.64764e-06, No Iterations 41
smoothSolver:  Solving for Uy, Initial residual = 0.00305326, Final residual = 9.75859e-06, No Iterations 47
DICPCG:  Solving for p, Initial residual = 0.0254908, Final residual = 0.00110655, No Iterations 143
time step continuity errors : sum local = 1.72661e-06, global = 2.7841e-19, cumulative = 5.10164e-18
DICPCG:  Solving for p, Initial residual = 0.0241741, Final residual = 9.65376e-07, No Iterations 200
time step continuity errors : sum local = 1.52612e-09, global = 5.54309e-19, cumulative = 5.65595e-18
ExecutionTime = 2.93 s  ClockTime = 3 s

Time = 0.0245

Courant Number mean: 1.28023 max: 6.23605
smoothSolver:  Solving for Ux, Initial residual = 0.0013603, Final residual = 9.04496e-06, No Iterations 41
smoothSolver:  Solving for Uy, Initial residual = 0.00299951, Final residual = 9.66659e-06, No Iterations 47
DICPCG:  Solving for p, Initial residual = 0.0227378, Final residual = 0.00107611, No Iterations 124
time step continuity errors : sum local = 1.68316e-06, global = -5.51816e-19, cumulative = 5.10413e-18
DICPCG:  Solving for p, Initial residual = 0.0217316, Final residual = 9.14354e-07, No Iterations 196
time step continuity errors : sum local = 1.42871e-09, global = 5.18389e-19, cumulative = 5.62252e-18
ExecutionTime = 2.99 s  ClockTime = 3 s

Time = 0.025

Courant Number mean: 1.28536 max: 6.23626
smoothSolver:  Solving for Ux, Initial residual = 0.00132946, Final residual = 8.97201e-06, No Iterations 41
smoothSolver:  Solving for Uy, Initial residual = 0.00287204, Final residual = 9.36672e-06, No Iterations 47
DICPCG:  Solving for p, Initial residual = 0.0202526, Final residual = 0.000984155, No Iterations 61
time step continuity errors : sum local = 1.80481e-06, global = -5.06936e-19, cumulative = 5.11558e-18
DICPCG:  Solving for p, Initial residual = 0.0193726, Final residual = 8.86749e-07, No Iterations 199
time step continuity errors : sum local = 1.38022e-09, global = -1.60351e-19, cumulative = 4.95523e-18
ExecutionTime = 3.04 s  ClockTime = 3 s

Time = 0.0255

Courant Number mean: 1.29036 max: 6.23678
smoothSolver:  Solving for Ux, Initial residual = 0.00125453, Final residual = 9.1931e-06, No Iterations 40
smoothSolver:  Solving for Uy, Initial residual = 0.00313003, Final residual = 9.95665e-06, No Iterations 47
DICPCG:  Solving for p, Initial residual = 0.026253, Final residual = 0.00121895, No Iterations 125
time step continuity errors : sum local = 1.91483e-06, global = -5.60181e-19, cumulative = 4.39505e-18
DICPCG:  Solving for p, Initial residual = 0.0246534, Final residual = 7.9933e-07, No Iterations 202
time step continuity errors : sum local = 1.27687e-09, global = -1.98041e-19, cumulative = 4.19701e-18
ExecutionTime = 3.1 s  ClockTime = 3 s

Time = 0.026

Courant Number mean: 1.29522 max: 6.23713
smoothSolver:  Solving for Ux, Initial residual = 0.00130857, Final residual = 9.74465e-06, No Iterations 40
smoothSolver:  Solving for Uy, Initial residual = 0.00275768, Final residual = 9.79692e-06, No Iterations 46
DICPCG:  Solving for p, Initial residual = 0.0227018, Final residual = 0.00111767, No Iterations 140
time step continuity errors : sum local = 1.74446e-06, global = 8.32559e-19, cumulative = 5.02957e-18
DICPCG:  Solving for p, Initial residual = 0.0213806, Final residual = 9.44976e-07, No Iterations 199
time step continuity errors : sum local = 1.48592e-09, global = -5.82866e-19, cumulative = 4.4467e-18
ExecutionTime = 3.16 s  ClockTime = 3 s

Time = 0.0265

Courant Number mean: 1.29993 max: 6.23756
smoothSolver:  Solving for Ux, Initial residual = 0.0012233, Final residual = 9.26304e-06, No Iterations 40
smoothSolver:  Solving for Uy, Initial residual = 0.00261487, Final residual = 9.59736e-06, No Iterations 46
DICPCG:  Solving for p, Initial residual = 0.0208117, Final residual = 0.00101895, No Iterations 58
time step continuity errors : sum local = 1.84047e-06, global = -3.33298e-19, cumulative = 4.11341e-18
DICPCG:  Solving for p, Initial residual = 0.0198584, Final residual = 8.26405e-07, No Iterations 199
time step continuity errors : sum local = 1.2893e-09, global = -5.16551e-19, cumulative = 3.59685e-18
ExecutionTime = 3.2 s  ClockTime = 3 s

Time = 0.027

Courant Number mean: 1.30451 max: 6.23782
smoothSolver:  Solving for Ux, Initial residual = 0.00132615, Final residual = 9.94746e-06, No Iterations 40
smoothSolver:  Solving for Uy, Initial residual = 0.00247839, Final residual = 9.86322e-06, No Iterations 45
DICPCG:  Solving for p, Initial residual = 0.0235738, Final residual = 0.00110948, No Iterations 139
time step continuity errors : sum local = 1.73448e-06, global = 1.97554e-19, cumulative = 3.79441e-18
DICPCG:  Solving for p, Initial residual = 0.0221478, Final residual = 9.3812e-07, No Iterations 200
time step continuity errors : sum local = 1.4994e-09, global = 4.66152e-19, cumulative = 4.26056e-18
ExecutionTime = 3.26 s  ClockTime = 3 s

Time = 0.0275

Courant Number mean: 1.30896 max: 6.23829
smoothSolver:  Solving for Ux, Initial residual = 0.00117104, Final residual = 9.78787e-06, No Iterations 39
smoothSolver:  Solving for Uy, Initial residual = 0.00261616, Final residual = 9.34532e-06, No Iterations 46
DICPCG:  Solving for p, Initial residual = 0.0213609, Final residual = 0.00105553, No Iterations 139
time step continuity errors : sum local = 1.65998e-06, global = 3.26712e-19, cumulative = 4.58727e-18
DICPCG:  Solving for p, Initial residual = 0.0200175, Final residual = 8.92272e-07, No Iterations 195
time step continuity errors : sum local = 1.40289e-09, global = -6.3325e-20, cumulative = 4.52395e-18
ExecutionTime = 3.32 s  ClockTime = 3 s

Time = 0.028

Courant Number mean: 1.3133 max: 6.23858
smoothSolver:  Solving for Ux, Initial residual = 0.00112165, Final residual = 9.57504e-06, No Iterations 39
smoothSolver:  Solving for Uy, Initial residual = 0.00240389, Final residual = 9.86605e-06, No Iterations 45
DICPCG:  Solving for p, Initial residual = 0.0199969, Final residual = 0.000967166, No Iterations 71
time step continuity errors : sum local = 1.80017e-06, global = 4.3489e-20, cumulative = 4.56744e-18
DICPCG:  Solving for p, Initial residual = 0.0190845, Final residual = 8.0826e-07, No Iterations 194
time step continuity errors : sum local = 1.26093e-09, global = -5.52709e-19, cumulative = 4.01473e-18
ExecutionTime = 3.37 s  ClockTime = 4 s

Time = 0.0285

Courant Number mean: 1.31752 max: 6.23882
smoothSolver:  Solving for Ux, Initial residual = 0.00107653, Final residual = 8.90496e-06, No Iterations 39
smoothSolver:  Solving for Uy, Initial residual = 0.00266946, Final residual = 9.52394e-06, No Iterations 46
DICPCG:  Solving for p, Initial residual = 0.02335, Final residual = 0.00113667, No Iterations 127
time step continuity errors : sum local = 1.78703e-06, global = 3.85652e-20, cumulative = 4.05329e-18
DICPCG:  Solving for p, Initial residual = 0.0219432, Final residual = 8.60198e-07, No Iterations 202
time step continuity errors : sum local = 1.37974e-09, global = 4.66825e-19, cumulative = 4.52012e-18
ExecutionTime = 3.43 s  ClockTime = 4 s

Time = 0.029

Courant Number mean: 1.32165 max: 6.23907
smoothSolver:  Solving for Ux, Initial residual = 0.00112243, Final residual = 9.35066e-06, No Iterations 39
smoothSolver:  Solving for Uy, Initial residual = 0.00230596, Final residual = 9.16024e-06, No Iterations 45
DICPCG:  Solving for p, Initial residual = 0.0202179, Final residual = 0.000938044, No Iterations 142
time step continuity errors : sum local = 1.46494e-06, global = -6.90034e-19, cumulative = 3.83008e-18
DICPCG:  Solving for p, Initial residual = 0.0190835, Final residual = 9.5624e-07, No Iterations 196
time step continuity errors : sum local = 1.50634e-09, global = -1.91597e-20, cumulative = 3.81092e-18
ExecutionTime = 3.49 s  ClockTime = 4 s

Time = 0.0295

Courant Number mean: 1.32565 max: 6.23931
smoothSolver:  Solving for Ux, Initial residual = 0.00104195, Final residual = 8.92214e-06, No Iterations 39
smoothSolver:  Solving for Uy, Initial residual = 0.00222405, Final residual = 9.11538e-06, No Iterations 45
DICPCG:  Solving for p, Initial residual = 0.0175895, Final residual = 0.000837681, No Iterations 39
time step continuity errors : sum local = 1.61658e-06, global = -4.83009e-19, cumulative = 3.32791e-18
DICPCG:  Solving for p, Initial residual = 0.0166383, Final residual = 9.10496e-07, No Iterations 189
time step continuity errors : sum local = 1.4203e-09, global = 1.82879e-19, cumulative = 3.51079e-18
ExecutionTime = 3.53 s  ClockTime = 4 s

Time = 0.03

Courant Number mean: 1.32955 max: 6.23968
smoothSolver:  Solving for Ux, Initial residual = 0.00111877, Final residual = 9.4587e-06, No Iterations 39
smoothSolver:  Solving for Uy, Initial residual = 0.00217568, Final residual = 9.74746e-06, No Iterations 44
DICPCG:  Solving for p, Initial residual = 0.021726, Final residual = 0.00105963, No Iterations 144
time step continuity errors : sum local = 1.65578e-06, global = -2.10143e-19, cumulative = 3.30065e-18
DICPCG:  Solving for p, Initial residual = 0.0203803, Final residual = 8.8665e-07, No Iterations 199
time step continuity errors : sum local = 1.42055e-09, global = -1.48332e-19, cumulative = 3.15232e-18
ExecutionTime = 3.59 s  ClockTime = 4 s

Time = 0.0305

Courant Number mean: 1.33334 max: 6.2399
smoothSolver:  Solving for Ux, Initial residual = 0.00100994, Final residual = 9.48701e-06, No Iterations 38
smoothSolver:  Solving for Uy, Initial residual = 0.00222362, Final residual = 9.9522e-06, No Iterations 44
DICPCG:  Solving for p, Initial residual = 0.0211147, Final residual = 0.00102208, No Iterations 123
time step continuity errors : sum local = 1.61069e-06, global = 6.23177e-19, cumulative = 3.77549e-18
DICPCG:  Solving for p, Initial residual = 0.0199777, Final residual = 7.94075e-07, No Iterations 201
time step continuity errors : sum local = 1.25031e-09, global = 1.44956e-18, cumulative = 5.22506e-18
ExecutionTime = 3.65 s  ClockTime = 4 s

Time = 0.031

Courant Number mean: 1.33703 max: 6.24012
smoothSolver:  Solving for Ux, Initial residual = 0.000970606, Final residual = 9.353e-06, No Iterations 38
smoothSolver:  Solving for Uy, Initial residual = 0.00201872, Final residual = 9.3936e-06, No Iterations 44
DICPCG:  Solving for p, Initial residual = 0.0171375, Final residual = 0.000843874, No Iterations 138
time step continuity errors : sum local = 1.32035e-06, global = -7.47765e-19, cumulative = 4.47729e-18
DICPCG:  Solving for p, Initial residual = 0.0162127, Final residual = 8.97972e-07, No Iterations 195
time step continuity errors : sum local = 1.40526e-09, global = 7.35376e-20, cumulative = 4.55083e-18
ExecutionTime = 3.7 s  ClockTime = 4 s

Time = 0.0315

Courant Number mean: 1.34062 max: 6.2403
smoothSolver:  Solving for Ux, Initial residual = 0.000922916, Final residual = 8.96825e-06, No Iterations 38
smoothSolver:  Solving for Uy, Initial residual = 0.00199677, Final residual = 9.36677e-06, No Iterations 44
DICPCG:  Solving for p, Initial residual = 0.0145672, Final residual = 0.000635512, No Iterations 68
time step continuity errors : sum local = 1.08162e-06, global = -1.03412e-18, cumulative = 3.51671e-18
DICPCG:  Solving for p, Initial residual = 0.0138425, Final residual = 9.84735e-07, No Iterations 192
time step continuity errors : sum local = 1.53621e-09, global = 5.69522e-19, cumulative = 4.08623e-18
ExecutionTime = 3.75 s  ClockTime = 4 s

Time = 0.032

Courant Number mean: 1.34414 max: 6.24071
smoothSolver:  Solving for Ux, Initial residual = 0.000943081, Final residual = 9.18753e-06, No Iterations 38
smoothSolver:  Solving for Uy, Initial residual = 0.00186503, Final residual = 9.81614e-06, No Iterations 43
DICPCG:  Solving for p, Initial residual = 0.0141499, Final residual = 0.000660471, No Iterations 120
time step continuity errors : sum local = 1.02857e-06, global = 7.58552e-19, cumulative = 4.84479e-18
DICPCG:  Solving for p, Initial residual = 0.0134287, Final residual = 8.40549e-07, No Iterations 195
time step continuity errors : sum local = 1.32012e-09, global = 3.61242e-19, cumulative = 5.20603e-18
ExecutionTime = 3.81 s  ClockTime = 4 s

Time = 0.0325

Courant Number mean: 1.34756 max: 6.24088
smoothSolver:  Solving for Ux, Initial residual = 0.000883566, Final residual = 9.70428e-06, No Iterations 37
smoothSolver:  Solving for Uy, Initial residual = 0.00186258, Final residual = 9.82217e-06, No Iterations 43
DICPCG:  Solving for p, Initial residual = 0.0134646, Final residual = 0.000654472, No Iterations 130
time step continuity errors : sum local = 1.02434e-06, global = 6.20803e-19, cumulative = 5.82683e-18
DICPCG:  Solving for p, Initial residual = 0.0129321, Final residual = 9.46848e-07, No Iterations 195
time step continuity errors : sum local = 1.47225e-09, global = -6.85128e-19, cumulative = 5.1417e-18
ExecutionTime = 3.86 s  ClockTime = 4 s

Time = 0.033

Courant Number mean: 1.35089 max: 6.24102
smoothSolver:  Solving for Ux, Initial residual = 0.000853019, Final residual = 9.4703e-06, No Iterations 37
smoothSolver:  Solving for Uy, Initial residual = 0.00180681, Final residual = 9.63653e-06, No Iterations 43
DICPCG:  Solving for p, Initial residual = 0.013117, Final residual = 0.000635716, No Iterations 51
time step continuity errors : sum local = 1.11762e-06, global = -2.14529e-20, cumulative = 5.12025e-18
DICPCG:  Solving for p, Initial residual = 0.0125275, Final residual = 9.13536e-07, No Iterations 193
time step continuity errors : sum local = 1.42073e-09, global = -7.86138e-19, cumulative = 4.33411e-18
ExecutionTime = 3.91 s  ClockTime = 4 s

Time = 0.0335

Courant Number mean: 1.35414 max: 6.24128
smoothSolver:  Solving for Ux, Initial residual = 0.000820426, Final residual = 8.92424e-06, No Iterations 37
smoothSolver:  Solving for Uy, Initial residual = 0.00187996, Final residual = 9.87589e-06, No Iterations 43
DICPCG:  Solving for p, Initial residual = 0.0139593, Final residual = 0.00068934, No Iterations 145
time step continuity errors : sum local = 1.07727e-06, global = -3.56045e-19, cumulative = 3.97807e-18
DICPCG:  Solving for p, Initial residual = 0.0133911, Final residual = 8.37537e-07, No Iterations 195
time step continuity errors : sum local = 1.31527e-09, global = 1.87362e-20, cumulative = 3.9968e-18
ExecutionTime = 3.97 s  ClockTime = 4 s

Time = 0.034

Courant Number mean: 1.35731 max: 6.24151
smoothSolver:  Solving for Ux, Initial residual = 0.000841249, Final residual = 9.20476e-06, No Iterations 37
smoothSolver:  Solving for Uy, Initial residual = 0.0016992, Final residual = 9.98531e-06, No Iterations 42
DICPCG:  Solving for p, Initial residual = 0.0134471, Final residual = 0.0005987, No Iterations 119
time step continuity errors : sum local = 9.35211e-07, global = 1.848e-19, cumulative = 4.1816e-18
DICPCG:  Solving for p, Initial residual = 0.0128332, Final residual = 8.15722e-07, No Iterations 195
time step continuity errors : sum local = 1.27775e-09, global = -4.03599e-19, cumulative = 3.778e-18
ExecutionTime = 4.02 s  ClockTime = 4 s

Time = 0.0345

Courant Number mean: 1.36039 max: 6.24166
smoothSolver:  Solving for Ux, Initial residual = 0.000797233, Final residual = 9.95385e-06, No Iterations 36
smoothSolver:  Solving for Uy, Initial residual = 0.00164359, Final residual = 9.89394e-06, No Iterations 42
DICPCG:  Solving for p, Initial residual = 0.011662, Final residual = 0.000570974, No Iterations 66
time step continuity errors : sum local = 1.05396e-06, global = -1.31813e-19, cumulative = 3.64619e-18
DICPCG:  Solving for p, Initial residual = 0.0111344, Final residual = 8.43937e-07, No Iterations 187
time step continuity errors : sum local = 1.31416e-09, global = 8.0818e-20, cumulative = 3.72701e-18
ExecutionTime = 4.07 s  ClockTime = 4 s

Time = 0.035

Courant Number mean: 1.3634 max: 6.24172
smoothSolver:  Solving for Ux, Initial residual = 0.000861273, Final residual = 9.39955e-06, No Iterations 37
smoothSolver:  Solving for Uy, Initial residual = 0.00155765, Final residual = 9.07697e-06, No Iterations 42
DICPCG:  Solving for p, Initial residual = 0.0132426, Final residual = 0.000577456, No Iterations 123
time step continuity errors : sum local = 9.01171e-07, global = 4.45795e-19, cumulative = 4.1728e-18
DICPCG:  Solving for p, Initial residual = 0.012472, Final residual = 8.73561e-07, No Iterations 195
time step continuity errors : sum local = 1.38291e-09, global = -1.1164e-18, cumulative = 3.05641e-18
ExecutionTime = 4.12 s  ClockTime = 4 s

Time = 0.0355

Courant Number mean: 1.36632 max: 6.242
smoothSolver:  Solving for Ux, Initial residual = 0.00076609, Final residual = 9.31927e-06, No Iterations 36
smoothSolver:  Solving for Uy, Initial residual = 0.00164141, Final residual = 9.58018e-06, No Iterations 42
DICPCG:  Solving for p, Initial residual = 0.0120638, Final residual = 0.000565772, No Iterations 125
time step continuity errors : sum local = 8.93346e-07, global = 3.0616e-20, cumulative = 3.08702e-18
DICPCG:  Solving for p, Initial residual = 0.0114898, Final residual = 7.59031e-07, No Iterations 194
time step continuity errors : sum local = 1.18373e-09, global = 2.53898e-20, cumulative = 3.11241e-18
ExecutionTime = 4.18 s  ClockTime = 4 s

Time = 0.036

Courant Number mean: 1.36918 max: 6.24209
smoothSolver:  Solving for Ux, Initial residual = 0.000747243, Final residual = 9.28661e-06, No Iterations 36
smoothSolver:  Solving for Uy, Initial residual = 0.0015222, Final residual = 9.11516e-06, No Iterations 42
DICPCG:  Solving for p, Initial residual = 0.0118211, Final residual = 0.00054863, No Iterations 58
time step continuity errors : sum local = 9.56329e-07, global = 1.10067e-19, cumulative = 3.22248e-18
DICPCG:  Solving for p, Initial residual = 0.0112794, Final residual = 9.5559e-07, No Iterations 194
time step continuity errors : sum local = 1.48792e-09, global = 5.07318e-20, cumulative = 3.27321e-18
ExecutionTime = 4.23 s  ClockTime = 4 s

Time = 0.0365

Courant Number mean: 1.37196 max: 6.24225
smoothSolver:  Solving for Ux, Initial residual = 0.00070761, Final residual = 9.79538e-06, No Iterations 35
smoothSolver:  Solving for Uy, Initial residual = 0.00158786, Final residual = 9.44114e-06, No Iterations 42
DICPCG:  Solving for p, Initial residual = 0.0120798, Final residual = 0.000536919, No Iterations 125
time step continuity errors : sum local = 8.38518e-07, global = -6.00214e-19, cumulative = 2.673e-18
DICPCG:  Solving for p, Initial residual = 0.0114576, Final residual = 9.31451e-07, No Iterations 195
time step continuity errors : sum local = 1.45997e-09, global = 8.67377e-20, cumulative = 2.75973e-18
ExecutionTime = 4.28 s  ClockTime = 4 s

Time = 0.037

Courant Number mean: 1.37468 max: 6.24248
smoothSolver:  Solving for Ux, Initial residual = 0.000725979, Final residual = 8.97314e-06, No Iterations 36
smoothSolver:  Solving for Uy, Initial residual = 0.00144745, Final residual = 9.66191e-06, No Iterations 41
DICPCG:  Solving for p, Initial residual = 0.0109457, Final residual = 0.000524884, No Iterations 142
time step continuity errors : sum local = 8.18048e-07, global = -5.38552e-19, cumulative = 2.22118e-18
DICPCG:  Solving for p, Initial residual = 0.0104041, Final residual = 8.37719e-07, No Iterations 194
time step continuity errors : sum local = 1.31e-09, global = -8.69607e-19, cumulative = 1.35157e-18
ExecutionTime = 4.34 s  ClockTime = 4 s

Time = 0.0375

Courant Number mean: 1.37733 max: 6.24264
smoothSolver:  Solving for Ux, Initial residual = 0.000687879, Final residual = 9.69251e-06, No Iterations 35
smoothSolver:  Solving for Uy, Initial residual = 0.00139298, Final residual = 9.44391e-06, No Iterations 41
DICPCG:  Solving for p, Initial residual = 0.0103131, Final residual = 0.000498896, No Iterations 54
time step continuity errors : sum local = 8.60219e-07, global = -3.81142e-19, cumulative = 9.70432e-19
DICPCG:  Solving for p, Initial residual = 0.00982618, Final residual = 9.66306e-07, No Iterations 189
time step continuity errors : sum local = 1.5088e-09, global = 1.74068e-20, cumulative = 9.87839e-19
ExecutionTime = 4.38 s  ClockTime = 5 s

Time = 0.038

Courant Number mean: 1.3799 max: 6.24273
smoothSolver:  Solving for Ux, Initial residual = 0.000720326, Final residual = 8.95695e-06, No Iterations 36
smoothSolver:  Solving for Uy, Initial residual = 0.00130929, Final residual = 9.88795e-06, No Iterations 40
DICPCG:  Solving for p, Initial residual = 0.0108279, Final residual = 0.000541203, No Iterations 143
time step continuity errors : sum local = 8.44863e-07, global = 1.08079e-18, cumulative = 2.06863e-18
DICPCG:  Solving for p, Initial residual = 0.0102602, Final residual = 8.1094e-07, No Iterations 195
time step continuity errors : sum local = 1.27452e-09, global = -1.25754e-20, cumulative = 2.05606e-18
ExecutionTime = 4.44 s  ClockTime = 5 s

Time = 0.0385

Courant Number mean: 1.38242 max: 6.24291
smoothSolver:  Solving for Ux, Initial residual = 0.000652968, Final residual = 9.11583e-06, No Iterations 35
smoothSolver:  Solving for Uy, Initial residual = 0.0013787, Final residual = 9.18986e-06, No Iterations 41
DICPCG:  Solving for p, Initial residual = 0.010151, Final residual = 0.000476419, No Iterations 140
time step continuity errors : sum local = 7.4281e-07, global = 4.98067e-19, cumulative = 2.55412e-18
DICPCG:  Solving for p, Initial residual = 0.00973891, Final residual = 8.52304e-07, No Iterations 183
time step continuity errors : sum local = 1.32718e-09, global = -1.11086e-18, cumulative = 1.44327e-18
ExecutionTime = 4.49 s  ClockTime = 5 s

Time = 0.039

Courant Number mean: 1.38487 max: 6.243
smoothSolver:  Solving for Ux, Initial residual = 0.000636258, Final residual = 9.0043e-06, No Iterations 35
smoothSolver:  Solving for Uy, Initial residual = 0.0012861, Final residual = 9.85797e-06, No Iterations 40
DICPCG:  Solving for p, Initial residual = 0.00907468, Final residual = 0.000424787, No Iterations 124
time step continuity errors : sum local = 6.62938e-07, global = 1.45611e-19, cumulative = 1.58888e-18
DICPCG:  Solving for p, Initial residual = 0.00868806, Final residual = 9.48098e-07, No Iterations 185
time step continuity errors : sum local = 1.4773e-09, global = -1.96109e-20, cumulative = 1.56927e-18
ExecutionTime = 4.55 s  ClockTime = 5 s

Time = 0.0395

Courant Number mean: 1.38727 max: 6.24314
smoothSolver:  Solving for Ux, Initial residual = 0.000608062, Final residual = 9.76395e-06, No Iterations 34
smoothSolver:  Solving for Uy, Initial residual = 0.00128511, Final residual = 9.88866e-06, No Iterations 40
DICPCG:  Solving for p, Initial residual = 0.00878933, Final residual = 0.000407098, No Iterations 69
time step continuity errors : sum local = 6.52383e-07, global = -1.83572e-19, cumulative = 1.3857e-18
DICPCG:  Solving for p, Initial residual = 0.00841678, Final residual = 8.60976e-07, No Iterations 192
time step continuity errors : sum local = 1.3405e-09, global = -1.75972e-18, cumulative = -3.74022e-19
ExecutionTime = 4.59 s  ClockTime = 5 s

Time = 0.04

Courant Number mean: 1.3896 max: 6.24333
smoothSolver:  Solving for Ux, Initial residual = 0.000604106, Final residual = 9.68008e-06, No Iterations 34
smoothSolver:  Solving for Uy, Initial residual = 0.00122823, Final residual = 9.44028e-06, No Iterations 40
DICPCG:  Solving for p, Initial residual = 0.00801644, Final residual = 0.000382847, No Iterations 143
time step continuity errors : sum local = 5.96119e-07, global = -2.73358e-19, cumulative = -6.47381e-19
DICPCG:  Solving for p, Initial residual = 0.00768136, Final residual = 9.27281e-07, No Iterations 182
time step continuity errors : sum local = 1.44642e-09, global = -5.95665e-19, cumulative = -1.24305e-18
ExecutionTime = 4.65 s  ClockTime = 5 s

Time = 0.0405

Courant Number mean: 1.39188 max: 6.24344
smoothSolver:  Solving for Ux, Initial residual = 0.000587944, Final residual = 9.41999e-06, No Iterations 34
smoothSolver:  Solving for Uy, Initial residual = 0.00118791, Final residual = 9.15474e-06, No Iterations 40
DICPCG:  Solving for p, Initial residual = 0.00812339, Final residual = 0.000387841, No Iterations 38
time step continuity errors : sum local = 6.31217e-07, global = -9.81967e-19, cumulative = -2.22501e-18
DICPCG:  Solving for p, Initial residual = 0.00778049, Final residual = 9.96305e-07, No Iterations 170
time step continuity errors : sum local = 1.55282e-09, global = -8.5765e-19, cumulative = -3.08266e-18
ExecutionTime = 4.69 s  ClockTime = 5 s

Time = 0.041

Courant Number mean: 1.39409 max: 6.24352
smoothSolver:  Solving for Ux, Initial residual = 0.000573279, Final residual = 9.19882e-06, No Iterations 34
smoothSolver:  Solving for Uy, Initial residual = 0.00115792, Final residual = 8.89459e-06, No Iterations 40
DICPCG:  Solving for p, Initial residual = 0.00828674, Final residual = 0.000411481, No Iterations 61
time step continuity errors : sum local = 7.40753e-07, global = -4.84877e-19, cumulative = -3.56754e-18
DICPCG:  Solving for p, Initial residual = 0.00792124, Final residual = 8.28986e-07, No Iterations 192
time step continuity errors : sum local = 1.28955e-09, global = -9.64525e-21, cumulative = -3.57718e-18
ExecutionTime = 4.74 s  ClockTime = 5 s

Time = 0.0415

Courant Number mean: 1.39626 max: 6.24357
smoothSolver:  Solving for Ux, Initial residual = 0.000542806, Final residual = 9.52196e-06, No Iterations 33
smoothSolver:  Solving for Uy, Initial residual = 0.0012562, Final residual = 9.45084e-06, No Iterations 40
DICPCG:  Solving for p, Initial residual = 0.00973332, Final residual = 0.000433215, No Iterations 147
time step continuity errors : sum local = 6.76307e-07, global = 5.78057e-19, cumulative = -2.99913e-18
DICPCG:  Solving for p, Initial residual = 0.00932486, Final residual = 9.37917e-07, No Iterations 194
time step continuity errors : sum local = 1.47164e-09, global = -3.0313e-19, cumulative = -3.30226e-18
ExecutionTime = 4.79 s  ClockTime = 5 s

Time = 0.042

Courant Number mean: 1.39837 max: 6.24374
smoothSolver:  Solving for Ux, Initial residual = 0.000571671, Final residual = 8.94823e-06, No Iterations 34
smoothSolver:  Solving for Uy, Initial residual = 0.00110849, Final residual = 9.35954e-06, No Iterations 39
DICPCG:  Solving for p, Initial residual = 0.00825503, Final residual = 0.000363397, No Iterations 120
time step continuity errors : sum local = 5.68339e-07, global = -7.94722e-19, cumulative = -4.09698e-18
DICPCG:  Solving for p, Initial residual = 0.00787745, Final residual = 9.76776e-07, No Iterations 185
time step continuity errors : sum local = 1.52844e-09, global = -6.07013e-19, cumulative = -4.70399e-18
ExecutionTime = 4.84 s  ClockTime = 5 s

Time = 0.0425

Courant Number mean: 1.40042 max: 6.24383
smoothSolver:  Solving for Ux, Initial residual = 0.000531892, Final residual = 9.57193e-06, No Iterations 33
smoothSolver:  Solving for Uy, Initial residual = 0.00107318, Final residual = 9.28276e-06, No Iterations 39
DICPCG:  Solving for p, Initial residual = 0.00766112, Final residual = 0.000351725, No Iterations 141
time step continuity errors : sum local = 5.47947e-07, global = 1.11832e-18, cumulative = -3.58567e-18
DICPCG:  Solving for p, Initial residual = 0.00737622, Final residual = 9.28008e-07, No Iterations 191
time step continuity errors : sum local = 1.44385e-09, global = 7.11691e-19, cumulative = -2.87398e-18
ExecutionTime = 4.9 s  ClockTime = 5 s

Time = 0.043

Courant Number mean: 1.40242 max: 6.24386
smoothSolver:  Solving for Ux, Initial residual = 0.000521531, Final residual = 9.39796e-06, No Iterations 33
smoothSolver:  Solving for Uy, Initial residual = 0.00103862, Final residual = 9.03009e-06, No Iterations 39
DICPCG:  Solving for p, Initial residual = 0.00711741, Final residual = 0.000304828, No Iterations 120
time step continuity errors : sum local = 4.75812e-07, global = -2.31857e-19, cumulative = -3.10584e-18
DICPCG:  Solving for p, Initial residual = 0.00680098, Final residual = 8.50055e-07, No Iterations 182
time step continuity errors : sum local = 1.32609e-09, global = 8.19436e-19, cumulative = -2.2864e-18
ExecutionTime = 4.95 s  ClockTime = 5 s

Time = 0.0435

Courant Number mean: 1.40438 max: 6.24403
smoothSolver:  Solving for Ux, Initial residual = 0.000503666, Final residual = 9.14966e-06, No Iterations 33
smoothSolver:  Solving for Uy, Initial residual = 0.00101632, Final residual = 8.8579e-06, No Iterations 39
DICPCG:  Solving for p, Initial residual = 0.00634921, Final residual = 0.000242148, No Iterations 61
time step continuity errors : sum local = 3.83783e-07, global = 1.47102e-19, cumulative = -2.1393e-18
DICPCG:  Solving for p, Initial residual = 0.006089, Final residual = 9.60173e-07, No Iterations 182
time step continuity errors : sum local = 1.49556e-09, global = 8.88929e-19, cumulative = -1.25037e-18
ExecutionTime = 4.99 s  ClockTime = 5 s

Time = 0.044

Courant Number mean: 1.40628 max: 6.24412
smoothSolver:  Solving for Ux, Initial residual = 0.000498879, Final residual = 9.06111e-06, No Iterations 33
smoothSolver:  Solving for Uy, Initial residual = 0.000974444, Final residual = 9.58402e-06, No Iterations 38
DICPCG:  Solving for p, Initial residual = 0.0064839, Final residual = 0.000315768, No Iterations 139
time step continuity errors : sum local = 4.91747e-07, global = 2.39897e-19, cumulative = -1.01048e-18
DICPCG:  Solving for p, Initial residual = 0.00622609, Final residual = 9.14216e-07, No Iterations 190
time step continuity errors : sum local = 1.42697e-09, global = -2.21102e-19, cumulative = -1.23158e-18
ExecutionTime = 5.05 s  ClockTime = 5 s

Time = 0.0445

Courant Number mean: 1.40814 max: 6.24424
smoothSolver:  Solving for Ux, Initial residual = 0.000479458, Final residual = 9.80402e-06, No Iterations 32
smoothSolver:  Solving for Uy, Initial residual = 0.000965132, Final residual = 9.48549e-06, No Iterations 38
DICPCG:  Solving for p, Initial residual = 0.00617455, Final residual = 0.00028913, No Iterations 60
time step continuity errors : sum local = 4.67264e-07, global = -8.45984e-19, cumulative = -2.07756e-18
DICPCG:  Solving for p, Initial residual = 0.00593377, Final residual = 9.82658e-07, No Iterations 183
time step continuity errors : sum local = 1.52985e-09, global = -7.75103e-19, cumulative = -2.85267e-18
ExecutionTime = 5.09 s  ClockTime = 5 s

Time = 0.045

Courant Number mean: 1.40995 max: 6.24431
smoothSolver:  Solving for Ux, Initial residual = 0.0004787, Final residual = 9.7943e-06, No Iterations 32
smoothSolver:  Solving for Uy, Initial residual = 0.00092135, Final residual = 9.04013e-06, No Iterations 38
DICPCG:  Solving for p, Initial residual = 0.00660011, Final residual = 0.000302765, No Iterations 142
time step continuity errors : sum local = 4.71353e-07, global = 4.43918e-19, cumulative = -2.40875e-18
DICPCG:  Solving for p, Initial residual = 0.00633579, Final residual = 9.80368e-07, No Iterations 187
time step continuity errors : sum local = 1.52972e-09, global = 1.38812e-18, cumulative = -1.02063e-18
ExecutionTime = 5.15 s  ClockTime = 5 s

Time = 0.0455

Courant Number mean: 1.41171 max: 6.24442
smoothSolver:  Solving for Ux, Initial residual = 0.000456212, Final residual = 9.3049e-06, No Iterations 32
smoothSolver:  Solving for Uy, Initial residual = 0.000922664, Final residual = 9.03108e-06, No Iterations 38
DICPCG:  Solving for p, Initial residual = 0.00602133, Final residual = 0.000288658, No Iterations 60
time step continuity errors : sum local = 4.88696e-07, global = -9.78869e-19, cumulative = -1.9995e-18
DICPCG:  Solving for p, Initial residual = 0.00577074, Final residual = 8.43426e-07, No Iterations 190
time step continuity errors : sum local = 1.31462e-09, global = 9.20773e-19, cumulative = -1.07873e-18
ExecutionTime = 5.19 s  ClockTime = 5 s

Time = 0.046

Courant Number mean: 1.41343 max: 6.24449
smoothSolver:  Solving for Ux, Initial residual = 0.000464125, Final residual = 9.45119e-06, No Iterations 32
smoothSolver:  Solving for Uy, Initial residual = 0.000874716, Final residual = 9.60148e-06, No Iterations 37
DICPCG:  Solving for p, Initial residual = 0.00670651, Final residual = 0.000276649, No Iterations 120
time step continuity errors : sum local = 4.31051e-07, global = -4.11125e-19, cumulative = -1.48985e-18
DICPCG:  Solving for p, Initial residual = 0.00640908, Final residual = 9.89999e-07, No Iterations 187
time step continuity errors : sum local = 1.54811e-09, global = 2.60268e-19, cumulative = -1.22958e-18
ExecutionTime = 5.24 s  ClockTime = 5 s

Time = 0.0465

Courant Number mean: 1.41511 max: 6.2446
smoothSolver:  Solving for Ux, Initial residual = 0.000434562, Final residual = 9.95495e-06, No Iterations 31
smoothSolver:  Solving for Uy, Initial residual = 0.000889293, Final residual = 9.75177e-06, No Iterations 37
DICPCG:  Solving for p, Initial residual = 0.00578099, Final residual = 0.000244557, No Iterations 138
time step continuity errors : sum local = 3.83144e-07, global = 5.08249e-19, cumulative = -7.21334e-19
DICPCG:  Solving for p, Initial residual = 0.00554301, Final residual = 9.37329e-07, No Iterations 188
time step continuity errors : sum local = 1.45934e-09, global = 3.26973e-19, cumulative = -3.94361e-19
ExecutionTime = 5.3 s  ClockTime = 5 s

Time = 0.047

Courant Number mean: 1.41675 max: 6.24467
smoothSolver:  Solving for Ux, Initial residual = 0.000421218, Final residual = 9.71737e-06, No Iterations 31
smoothSolver:  Solving for Uy, Initial residual = 0.000848607, Final residual = 9.41203e-06, No Iterations 37
DICPCG:  Solving for p, Initial residual = 0.00560342, Final residual = 0.000255755, No Iterations 68
time step continuity errors : sum local = 4.56165e-07, global = 6.97191e-19, cumulative = 3.0283e-19
DICPCG:  Solving for p, Initial residual = 0.00537923, Final residual = 8.94085e-07, No Iterations 190
time step continuity errors : sum local = 1.39268e-09, global = 7.75247e-19, cumulative = 1.07808e-18
ExecutionTime = 5.34 s  ClockTime = 5 s

Time = 0.0475

Courant Number mean: 1.41835 max: 6.24474
smoothSolver:  Solving for Ux, Initial residual = 0.000403026, Final residual = 9.12849e-06, No Iterations 31
smoothSolver:  Solving for Uy, Initial residual = 0.000891794, Final residual = 9.72972e-06, No Iterations 37
DICPCG:  Solving for p, Initial residual = 0.0066608, Final residual = 0.000320041, No Iterations 129
time step continuity errors : sum local = 4.99277e-07, global = -8.33757e-20, cumulative = 9.94701e-19
DICPCG:  Solving for p, Initial residual = 0.00641526, Final residual = 8.41654e-07, No Iterations 192
time step continuity errors : sum local = 1.31456e-09, global = -1.37539e-18, cumulative = -3.80693e-19
ExecutionTime = 5.4 s  ClockTime = 6 s

Time = 0.048

Courant Number mean: 1.41991 max: 6.24482
smoothSolver:  Solving for Ux, Initial residual = 0.00041301, Final residual = 9.38563e-06, No Iterations 31
smoothSolver:  Solving for Uy, Initial residual = 0.000815077, Final residual = 9.9789e-06, No Iterations 36
DICPCG:  Solving for p, Initial residual = 0.00629719, Final residual = 0.000288319, No Iterations 138
time step continuity errors : sum local = 4.49787e-07, global = 5.7641e-20, cumulative = -3.23052e-19
DICPCG:  Solving for p, Initial residual = 0.0060326, Final residual = 8.49488e-07, No Iterations 188
time step continuity errors : sum local = 1.32796e-09, global = -9.58345e-20, cumulative = -4.18887e-19
ExecutionTime = 5.45 s  ClockTime = 6 s

Time = 0.0485

Courant Number mean: 1.42142 max: 6.24487
smoothSolver:  Solving for Ux, Initial residual = 0.000395248, Final residual = 9.09304e-06, No Iterations 31
smoothSolver:  Solving for Uy, Initial residual = 0.000789486, Final residual = 9.81389e-06, No Iterations 36
DICPCG:  Solving for p, Initial residual = 0.00530967, Final residual = 0.000242219, No Iterations 38
time step continuity errors : sum local = 4.32567e-07, global = 4.4322e-19, cumulative = 2.4333e-20
DICPCG:  Solving for p, Initial residual = 0.0050604, Final residual = 9.87029e-07, No Iterations 187
time step continuity errors : sum local = 1.53852e-09, global = 6.41114e-19, cumulative = 6.65447e-19
ExecutionTime = 5.49 s  ClockTime = 6 s

Time = 0.049

Courant Number mean: 1.4229 max: 6.24497
smoothSolver:  Solving for Ux, Initial residual = 0.000394384, Final residual = 9.01814e-06, No Iterations 31
smoothSolver:  Solving for Uy, Initial residual = 0.000771543, Final residual = 9.49326e-06, No Iterations 36
DICPCG:  Solving for p, Initial residual = 0.00608809, Final residual = 0.000295728, No Iterations 140
time step continuity errors : sum local = 4.60996e-07, global = -1.35528e-18, cumulative = -6.89837e-19
DICPCG:  Solving for p, Initial residual = 0.00582706, Final residual = 7.60659e-07, No Iterations 192
time step continuity errors : sum local = 1.19036e-09, global = 2.63144e-19, cumulative = -4.26692e-19
ExecutionTime = 5.55 s  ClockTime = 6 s

Time = 0.0495

Courant Number mean: 1.42435 max: 6.24504
smoothSolver:  Solving for Ux, Initial residual = 0.000380847, Final residual = 9.79179e-06, No Iterations 30
smoothSolver:  Solving for Uy, Initial residual = 0.000756145, Final residual = 9.30361e-06, No Iterations 36
DICPCG:  Solving for p, Initial residual = 0.00566975, Final residual = 0.000279642, No Iterations 124
time step continuity errors : sum local = 4.39997e-07, global = 6.94166e-19, cumulative = 2.67473e-19
DICPCG:  Solving for p, Initial residual = 0.00543471, Final residual = 9.21781e-07, No Iterations 190
time step continuity errors : sum local = 1.43679e-09, global = 2.15046e-19, cumulative = 4.8252e-19
ExecutionTime = 5.6 s  ClockTime = 6 s

Time = 0.05

Courant Number mean: 1.42575 max: 6.24509
smoothSolver:  Solving for Ux, Initial residual = 0.00036733, Final residual = 9.52993e-06, No Iterations 30
smoothSolver:  Solving for Uy, Initial residual = 0.000726276, Final residual = 9.05204e-06, No Iterations 36
DICPCG:  Solving for p, Initial residual = 0.00524734, Final residual = 0.000258274, No Iterations 60
time step continuity errors : sum local = 4.54424e-07, global = 6.36141e-19, cumulative = 1.11866e-18
DICPCG:  Solving for p, Initial residual = 0.00501246, Final residual = 9.07007e-07, No Iterations 178
time step continuity errors : sum local = 1.41364e-09, global = 6.50295e-19, cumulative = 1.76896e-18
ExecutionTime = 5.64 s  ClockTime = 6 s

Time = 0.0505

Courant Number mean: 1.42712 max: 6.24515
smoothSolver:  Solving for Ux, Initial residual = 0.000350077, Final residual = 8.9391e-06, No Iterations 30
smoothSolver:  Solving for Uy, Initial residual = 0.000753179, Final residual = 9.26209e-06, No Iterations 36
DICPCG:  Solving for p, Initial residual = 0.00571611, Final residual = 0.000254423, No Iterations 147
time step continuity errors : sum local = 3.97254e-07, global = -1.72746e-19, cumulative = 1.59621e-18
DICPCG:  Solving for p, Initial residual = 0.00547356, Final residual = 9.62669e-07, No Iterations 192
time step continuity errors : sum local = 1.50248e-09, global = -4.4347e-19, cumulative = 1.15274e-18
ExecutionTime = 5.69 s  ClockTime = 6 s

Time = 0.051

Courant Number mean: 1.42846 max: 6.24525
smoothSolver:  Solving for Ux, Initial residual = 0.000355851, Final residual = 9.14998e-06, No Iterations 30
smoothSolver:  Solving for Uy, Initial residual = 0.000698323, Final residual = 9.62597e-06, No Iterations 35
DICPCG:  Solving for p, Initial residual = 0.00484853, Final residual = 0.000236222, No Iterations 121
time step continuity errors : sum local = 3.68682e-07, global = -2.7354e-19, cumulative = 8.79199e-19
DICPCG:  Solving for p, Initial residual = 0.00462309, Final residual = 8.22871e-07, No Iterations 183
time step continuity errors : sum local = 1.28556e-09, global = 2.02503e-18, cumulative = 2.90422e-18
ExecutionTime = 5.75 s  ClockTime = 6 s

Time = 0.0515

Courant Number mean: 1.42977 max: 6.24532
smoothSolver:  Solving for Ux, Initial residual = 0.000337442, Final residual = 9.92435e-06, No Iterations 29
smoothSolver:  Solving for Uy, Initial residual = 0.000676404, Final residual = 9.52489e-06, No Iterations 35
DICPCG:  Solving for p, Initial residual = 0.00465162, Final residual = 0.000219905, No Iterations 58
time step continuity errors : sum local = 3.83109e-07, global = 5.12548e-19, cumulative = 3.41677e-18
DICPCG:  Solving for p, Initial residual = 0.00445192, Final residual = 9.35172e-07, No Iterations 179
time step continuity errors : sum local = 1.45926e-09, global = -6.10418e-19, cumulative = 2.80635e-18
ExecutionTime = 5.79 s  ClockTime = 6 s

Time = 0.052

Courant Number mean: 1.43104 max: 6.24537
smoothSolver:  Solving for Ux, Initial residual = 0.000348537, Final residual = 9.02039e-06, No Iterations 30
smoothSolver:  Solving for Uy, Initial residual = 0.000640506, Final residual = 8.90754e-06, No Iterations 35
DICPCG:  Solving for p, Initial residual = 0.00512202, Final residual = 0.000239273, No Iterations 121
time step continuity errors : sum local = 3.74021e-07, global = 2.38542e-19, cumulative = 3.0449e-18
DICPCG:  Solving for p, Initial residual = 0.00486839, Final residual = 9.10532e-07, No Iterations 191
time step continuity errors : sum local = 1.42557e-09, global = -2.18833e-19, cumulative = 2.82606e-18
ExecutionTime = 5.84 s  ClockTime = 6 s

Time = 0.0525

Courant Number mean: 1.43228 max: 6.24546
smoothSolver:  Solving for Ux, Initial residual = 0.00032201, Final residual = 9.34827e-06, No Iterations 29
smoothSolver:  Solving for Uy, Initial residual = 0.00065907, Final residual = 9.14571e-06, No Iterations 35
DICPCG:  Solving for p, Initial residual = 0.00436715, Final residual = 0.00021814, No Iterations 129
time step continuity errors : sum local = 3.43368e-07, global = 5.99696e-19, cumulative = 3.42576e-18
DICPCG:  Solving for p, Initial residual = 0.0041571, Final residual = 8.98277e-07, No Iterations 187
time step continuity errors : sum local = 1.39846e-09, global = 7.82909e-19, cumulative = 4.20867e-18
ExecutionTime = 5.89 s  ClockTime = 6 s

Time = 0.053

Courant Number mean: 1.43348 max: 6.24548
smoothSolver:  Solving for Ux, Initial residual = 0.00031403, Final residual = 9.21788e-06, No Iterations 29
smoothSolver:  Solving for Uy, Initial residual = 0.00062291, Final residual = 9.89318e-06, No Iterations 34
DICPCG:  Solving for p, Initial residual = 0.0041432, Final residual = 0.000189744, No Iterations 56
time step continuity errors : sum local = 3.29219e-07, global = -1.54859e-20, cumulative = 4.19318e-18
DICPCG:  Solving for p, Initial residual = 0.00395478, Final residual = 8.54196e-07, No Iterations 187
time step continuity errors : sum local = 1.33128e-09, global = 5.90166e-19, cumulative = 4.78335e-18
ExecutionTime = 5.93 s  ClockTime = 6 s

Time = 0.0535

Courant Number mean: 1.43466 max: 6.24554
smoothSolver:  Solving for Ux, Initial residual = 0.000297183, Final residual = 9.76136e-06, No Iterations 28
smoothSolver:  Solving for Uy, Initial residual = 0.00064191, Final residual = 8.98228e-06, No Iterations 35
DICPCG:  Solving for p, Initial residual = 0.00426682, Final residual = 0.000197939, No Iterations 125
time step continuity errors : sum local = 3.0861e-07, global = 4.11533e-19, cumulative = 5.19488e-18
DICPCG:  Solving for p, Initial residual = 0.00410624, Final residual = 9.08435e-07, No Iterations 190
time step continuity errors : sum local = 1.41469e-09, global = 7.9039e-21, cumulative = 5.20279e-18
ExecutionTime = 5.99 s  ClockTime = 6 s

Time = 0.054

Courant Number mean: 1.43581 max: 6.24562
smoothSolver:  Solving for Ux, Initial residual = 0.000305375, Final residual = 8.91341e-06, No Iterations 29
smoothSolver:  Solving for Uy, Initial residual = 0.000591636, Final residual = 9.29979e-06, No Iterations 34
DICPCG:  Solving for p, Initial residual = 0.00403873, Final residual = 0.000197009, No Iterations 142
time step continuity errors : sum local = 3.0731e-07, global = -2.3996e-19, cumulative = 4.96283e-18
DICPCG:  Solving for p, Initial residual = 0.00385636, Final residual = 9.24731e-07, No Iterations 187
time step continuity errors : sum local = 1.44314e-09, global = -2.28598e-19, cumulative = 4.73423e-18
ExecutionTime = 6.04 s  ClockTime = 6 s

Time = 0.0545

Courant Number mean: 1.43693 max: 6.24568
smoothSolver:  Solving for Ux, Initial residual = 0.00029057, Final residual = 9.62372e-06, No Iterations 28
smoothSolver:  Solving for Uy, Initial residual = 0.000572892, Final residual = 9.10525e-06, No Iterations 34
DICPCG:  Solving for p, Initial residual = 0.00393688, Final residual = 0.0001936, No Iterations 53
time step continuity errors : sum local = 3.24447e-07, global = -3.26999e-19, cumulative = 4.40723e-18
DICPCG:  Solving for p, Initial residual = 0.00375932, Final residual = 8.64579e-07, No Iterations 186
time step continuity errors : sum local = 1.35009e-09, global = -7.08367e-19, cumulative = 3.69886e-18
ExecutionTime = 6.08 s  ClockTime = 6 s

Time = 0.055

Courant Number mean: 1.43802 max: 6.2457
[...]
time step continuity errors : sum local = 1.37737e-09, global = -1.13537e-21, cumulative = 1.11203e-17
DICPCG:  Solving for p, Initial residual = 1.00954e-06, Final residual = 8.55539e-07, No Iterations 1
time step continuity errors : sum local = 1.3568e-09, global = -4.18834e-19, cumulative = 1.07014e-17
ExecutionTime = 22.95 s  ClockTime = 23 s

Time = 0.987

Courant Number mean: 1.48029 max: 6.24765
smoothSolver:  Solving for Ux, Initial residual = 4.86619e-07, Final residual = 4.86619e-07, No Iterations 0
smoothSolver:  Solving for Uy, Initial residual = 9.68564e-07, Final residual = 9.68564e-07, No Iterations 0
DICPCG:  Solving for p, Initial residual = 9.95761e-07, Final residual = 9.95761e-07, No Iterations 0
time step continuity errors : sum local = 1.57554e-09, global = 8.94793e-19, cumulative = 1.15962e-17
DICPCG:  Solving for p, Initial residual = 1.06577e-06, Final residual = 8.30722e-07, No Iterations 1
time step continuity errors : sum local = 1.31749e-09, global = -3.53581e-19, cumulative = 1.12427e-17
ExecutionTime = 22.95 s  ClockTime = 23 s

Time = 0.9875

Courant Number mean: 1.48029 max: 6.24765
smoothSolver:  Solving for Ux, Initial residual = 4.86676e-07, Final residual = 4.86676e-07, No Iterations 0
smoothSolver:  Solving for Uy, Initial residual = 9.66238e-07, Final residual = 9.66238e-07, No Iterations 0
DICPCG:  Solving for p, Initial residual = 1.03715e-06, Final residual = 8.58605e-07, No Iterations 1
time step continuity errors : sum local = 1.36058e-09, global = -4.59276e-19, cumulative = 1.07834e-17
DICPCG:  Solving for p, Initial residual = 9.91888e-07, Final residual = 9.91888e-07, No Iterations 0
time step continuity errors : sum local = 1.56849e-09, global = -1.02153e-18, cumulative = 9.76185e-18
ExecutionTime = 22.95 s  ClockTime = 23 s

Time = 0.988

Courant Number mean: 1.48029 max: 6.24765
smoothSolver:  Solving for Ux, Initial residual = 4.86245e-07, Final residual = 4.86245e-07, No Iterations 0
smoothSolver:  Solving for Uy, Initial residual = 9.62825e-07, Final residual = 9.62825e-07, No Iterations 0
DICPCG:  Solving for p, Initial residual = 1.08946e-06, Final residual = 9.06563e-07, No Iterations 1
time step continuity errors : sum local = 1.43487e-09, global = -5.7002e-19, cumulative = 9.19184e-18
DICPCG:  Solving for p, Initial residual = 1.12218e-06, Final residual = 9.31979e-07, No Iterations 1
time step continuity errors : sum local = 1.47415e-09, global = 9.36804e-19, cumulative = 1.01286e-17
ExecutionTime = 22.95 s  ClockTime = 23 s

Time = 0.9885

Courant Number mean: 1.48029 max: 6.24765
smoothSolver:  Solving for Ux, Initial residual = 4.86674e-07, Final residual = 4.86674e-07, No Iterations 0
smoothSolver:  Solving for Uy, Initial residual = 9.59718e-07, Final residual = 9.59718e-07, No Iterations 0
DICPCG:  Solving for p, Initial residual = 1.09937e-06, Final residual = 7.90769e-07, No Iterations 3
time step continuity errors : sum local = 1.24092e-09, global = 6.98019e-19, cumulative = 1.08267e-17
DICPCG:  Solving for p, Initial residual = 1.5741e-06, Final residual = 9.44643e-07, No Iterations 7
time step continuity errors : sum local = 1.48173e-09, global = 9.29114e-19, cumulative = 1.17558e-17
ExecutionTime = 22.96 s  ClockTime = 23 s

Time = 0.989

Courant Number mean: 1.48029 max: 6.24765
smoothSolver:  Solving for Ux, Initial residual = 5.21859e-07, Final residual = 5.21859e-07, No Iterations 0
smoothSolver:  Solving for Uy, Initial residual = 9.41919e-07, Final residual = 9.41919e-07, No Iterations 0
DICPCG:  Solving for p, Initial residual = 1.81563e-06, Final residual = 9.52073e-07, No Iterations 4
time step continuity errors : sum local = 1.48645e-09, global = -4.6555e-19, cumulative = 1.12902e-17
DICPCG:  Solving for p, Initial residual = 1.88182e-06, Final residual = 9.56728e-07, No Iterations 3
time step continuity errors : sum local = 1.49148e-09, global = -1.73032e-19, cumulative = 1.11172e-17
ExecutionTime = 22.96 s  ClockTime = 23 s

Time = 0.9895

Courant Number mean: 1.48029 max: 6.24765
smoothSolver:  Solving for Ux, Initial residual = 5.13475e-07, Final residual = 5.13475e-07, No Iterations 0
smoothSolver:  Solving for Uy, Initial residual = 9.23483e-07, Final residual = 9.23483e-07, No Iterations 0
DICPCG:  Solving for p, Initial residual = 1.79247e-06, Final residual = 9.49533e-07, No Iterations 8
time step continuity errors : sum local = 1.49664e-09, global = 1.2086e-18, cumulative = 1.23258e-17
DICPCG:  Solving for p, Initial residual = 1.93524e-06, Final residual = 9.89427e-07, No Iterations 5
time step continuity errors : sum local = 1.56516e-09, global = 5.44106e-19, cumulative = 1.28699e-17
ExecutionTime = 22.96 s  ClockTime = 23 s

Time = 0.99

Courant Number mean: 1.48029 max: 6.24765
smoothSolver:  Solving for Ux, Initial residual = 4.99974e-07, Final residual = 4.99974e-07, No Iterations 0
smoothSolver:  Solving for Uy, Initial residual = 9.59866e-07, Final residual = 9.59866e-07, No Iterations 0
DICPCG:  Solving for p, Initial residual = 1.96112e-06, Final residual = 9.9198e-07, No Iterations 4
time step continuity errors : sum local = 1.57899e-09, global = 7.99446e-19, cumulative = 1.36693e-17
DICPCG:  Solving for p, Initial residual = 1.9016e-06, Final residual = 9.47021e-07, No Iterations 3
time step continuity errors : sum local = 1.51052e-09, global = -3.5273e-19, cumulative = 1.33166e-17
ExecutionTime = 22.97 s  ClockTime = 23 s

Time = 0.9905

Courant Number mean: 1.48029 max: 6.24765
smoothSolver:  Solving for Ux, Initial residual = 4.89782e-07, Final residual = 4.89782e-07, No Iterations 0
smoothSolver:  Solving for Uy, Initial residual = 9.46135e-07, Final residual = 9.46135e-07, No Iterations 0
DICPCG:  Solving for p, Initial residual = 1.77886e-06, Final residual = 8.62958e-07, No Iterations 9
time step continuity errors : sum local = 1.36942e-09, global = -5.57919e-19, cumulative = 1.27587e-17
DICPCG:  Solving for p, Initial residual = 1.63093e-06, Final residual = 9.70702e-07, No Iterations 9
time step continuity errors : sum local = 1.54149e-09, global = -1.04942e-18, cumulative = 1.17093e-17
ExecutionTime = 22.97 s  ClockTime = 23 s

Time = 0.991

Courant Number mean: 1.48029 max: 6.24765
smoothSolver:  Solving for Ux, Initial residual = 4.59233e-07, Final residual = 4.59233e-07, No Iterations 0
smoothSolver:  Solving for Uy, Initial residual = 1.02414e-06, Final residual = 1.02414e-06, No Iterations 0
DICPCG:  Solving for p, Initial residual = 1.75702e-06, Final residual = 9.20457e-07, No Iterations 2
time step continuity errors : sum local = 1.46851e-09, global = -1.79472e-18, cumulative = 9.91455e-18
DICPCG:  Solving for p, Initial residual = 1.77697e-06, Final residual = 6.08599e-07, No Iterations 5
time step continuity errors : sum local = 9.77534e-10, global = 1.22704e-18, cumulative = 1.11416e-17
ExecutionTime = 22.97 s  ClockTime = 23 s

Time = 0.9915

Courant Number mean: 1.48029 max: 6.24765
smoothSolver:  Solving for Ux, Initial residual = 4.62828e-07, Final residual = 4.62828e-07, No Iterations 0
smoothSolver:  Solving for Uy, Initial residual = 1.01267e-06, Final residual = 1.01267e-06, No Iterations 0
DICPCG:  Solving for p, Initial residual = 1.18732e-06, Final residual = 6.53646e-07, No Iterations 3
time step continuity errors : sum local = 1.05343e-09, global = 3.651e-19, cumulative = 1.15067e-17
DICPCG:  Solving for p, Initial residual = 1.26718e-06, Final residual = 7.88051e-07, No Iterations 1
time step continuity errors : sum local = 1.26056e-09, global = -2.80414e-19, cumulative = 1.12263e-17
ExecutionTime = 22.98 s  ClockTime = 23 s

Time = 0.992

Courant Number mean: 1.48029 max: 6.24765
smoothSolver:  Solving for Ux, Initial residual = 4.61652e-07, Final residual = 4.61652e-07, No Iterations 0
smoothSolver:  Solving for Uy, Initial residual = 9.95811e-07, Final residual = 9.95811e-07, No Iterations 0
DICPCG:  Solving for p, Initial residual = 1.27273e-06, Final residual = 7.72684e-07, No Iterations 1
time step continuity errors : sum local = 1.23823e-09, global = -6.54085e-19, cumulative = 1.05722e-17
DICPCG:  Solving for p, Initial residual = 1.07814e-06, Final residual = 9.22594e-07, No Iterations 1
time step continuity errors : sum local = 1.47222e-09, global = 5.0817e-20, cumulative = 1.0623e-17
ExecutionTime = 22.98 s  ClockTime = 23 s

Time = 0.9925

Courant Number mean: 1.48029 max: 6.24765
smoothSolver:  Solving for Ux, Initial residual = 4.60356e-07, Final residual = 4.60356e-07, No Iterations 0
smoothSolver:  Solving for Uy, Initial residual = 9.91542e-07, Final residual = 9.91542e-07, No Iterations 0
DICPCG:  Solving for p, Initial residual = 1.18623e-06, Final residual = 9.95315e-07, No Iterations 1
time step continuity errors : sum local = 1.58637e-09, global = -1.05979e-18, cumulative = 9.56322e-18
DICPCG:  Solving for p, Initial residual = 1.24437e-06, Final residual = 7.2036e-07, No Iterations 15
time step continuity errors : sum local = 1.14591e-09, global = 3.68104e-19, cumulative = 9.93133e-18
ExecutionTime = 22.98 s  ClockTime = 23 s

Time = 0.993

Courant Number mean: 1.48029 max: 6.24765
smoothSolver:  Solving for Ux, Initial residual = 5.64605e-07, Final residual = 5.64605e-07, No Iterations 0
smoothSolver:  Solving for Uy, Initial residual = 8.51873e-07, Final residual = 8.51873e-07, No Iterations 0
DICPCG:  Solving for p, Initial residual = 1.58886e-06, Final residual = 9.41426e-07, No Iterations 9
time step continuity errors : sum local = 1.47976e-09, global = -2.49014e-21, cumulative = 9.92883e-18
DICPCG:  Solving for p, Initial residual = 1.63716e-06, Final residual = 8.87466e-07, No Iterations 8
time step continuity errors : sum local = 1.39271e-09, global = 9.18286e-20, cumulative = 1.00207e-17
ExecutionTime = 22.99 s  ClockTime = 23 s

Time = 0.9935

Courant Number mean: 1.48029 max: 6.24765
smoothSolver:  Solving for Ux, Initial residual = 5.26713e-07, Final residual = 5.26713e-07, No Iterations 0
smoothSolver:  Solving for Uy, Initial residual = 8.84754e-07, Final residual = 8.84754e-07, No Iterations 0
DICPCG:  Solving for p, Initial residual = 1.71895e-06, Final residual = 8.25819e-07, No Iterations 18
time step continuity errors : sum local = 1.30991e-09, global = 1.19503e-20, cumulative = 1.00326e-17
DICPCG:  Solving for p, Initial residual = 1.54824e-06, Final residual = 9.68789e-07, No Iterations 6
time step continuity errors : sum local = 1.533e-09, global = 4.22517e-19, cumulative = 1.04551e-17
ExecutionTime = 22.99 s  ClockTime = 23 s

Time = 0.994

Courant Number mean: 1.48029 max: 6.24765
smoothSolver:  Solving for Ux, Initial residual = 4.2158e-07, Final residual = 4.2158e-07, No Iterations 0
smoothSolver:  Solving for Uy, Initial residual = 1.10003e-06, Final residual = 1.10003e-06, No Iterations 0
DICPCG:  Solving for p, Initial residual = 1.79677e-06, Final residual = 8.53974e-07, No Iterations 15
time step continuity errors : sum local = 1.36803e-09, global = -3.10457e-19, cumulative = 1.01447e-17
DICPCG:  Solving for p, Initial residual = 1.56965e-06, Final residual = 9.81965e-07, No Iterations 8
time step continuity errors : sum local = 1.56133e-09, global = 9.27056e-19, cumulative = 1.10717e-17
ExecutionTime = 23 s  ClockTime = 23 s

Time = 0.9945

Courant Number mean: 1.48029 max: 6.24765
smoothSolver:  Solving for Ux, Initial residual = 4.9666e-07, Final residual = 4.9666e-07, No Iterations 0
smoothSolver:  Solving for Uy, Initial residual = 9.15122e-07, Final residual = 9.15122e-07, No Iterations 0
DICPCG:  Solving for p, Initial residual = 1.80634e-06, Final residual = 9.70027e-07, No Iterations 5
time step continuity errors : sum local = 1.53977e-09, global = 2.18071e-19, cumulative = 1.12898e-17
DICPCG:  Solving for p, Initial residual = 1.75002e-06, Final residual = 6.71619e-07, No Iterations 3
time step continuity errors : sum local = 1.07006e-09, global = 3.02677e-19, cumulative = 1.15925e-17
ExecutionTime = 23 s  ClockTime = 23 s

Time = 0.995

Courant Number mean: 1.48029 max: 6.24765
smoothSolver:  Solving for Ux, Initial residual = 4.94756e-07, Final residual = 4.94756e-07, No Iterations 0
smoothSolver:  Solving for Uy, Initial residual = 9.09467e-07, Final residual = 9.09467e-07, No Iterations 0
DICPCG:  Solving for p, Initial residual = 1.33444e-06, Final residual = 8.25826e-07, No Iterations 1
time step continuity errors : sum local = 1.30884e-09, global = -6.83156e-19, cumulative = 1.09093e-17
DICPCG:  Solving for p, Initial residual = 1.28823e-06, Final residual = 7.34267e-07, No Iterations 1
time step continuity errors : sum local = 1.16705e-09, global = 8.59874e-19, cumulative = 1.17692e-17
ExecutionTime = 23 s  ClockTime = 23 s

Time = 0.9955

Courant Number mean: 1.48029 max: 6.24765
smoothSolver:  Solving for Ux, Initial residual = 4.92659e-07, Final residual = 4.92659e-07, No Iterations 0
smoothSolver:  Solving for Uy, Initial residual = 9.05695e-07, Final residual = 9.05695e-07, No Iterations 0
DICPCG:  Solving for p, Initial residual = 9.39116e-07, Final residual = 9.39116e-07, No Iterations 0
time step continuity errors : sum local = 1.48602e-09, global = 1.64306e-19, cumulative = 1.19335e-17
DICPCG:  Solving for p, Initial residual = 1.12499e-06, Final residual = 9.14071e-07, No Iterations 1
time step continuity errors : sum local = 1.44697e-09, global = -3.22567e-19, cumulative = 1.16109e-17
ExecutionTime = 23.01 s  ClockTime = 23 s

Time = 0.996

Courant Number mean: 1.48029 max: 6.24765
smoothSolver:  Solving for Ux, Initial residual = 4.92004e-07, Final residual = 4.92004e-07, No Iterations 0
smoothSolver:  Solving for Uy, Initial residual = 9.04112e-07, Final residual = 9.04112e-07, No Iterations 0
DICPCG:  Solving for p, Initial residual = 1.1156e-06, Final residual = 8.99131e-07, No Iterations 1
time step continuity errors : sum local = 1.42362e-09, global = -1.97719e-19, cumulative = 1.14132e-17
DICPCG:  Solving for p, Initial residual = 1.0639e-06, Final residual = 7.79549e-07, No Iterations 13
time step continuity errors : sum local = 1.23641e-09, global = -1.0323e-18, cumulative = 1.03809e-17
ExecutionTime = 23.01 s  ClockTime = 23 s

Time = 0.9965

Courant Number mean: 1.48029 max: 6.24765
smoothSolver:  Solving for Ux, Initial residual = 4.12616e-07, Final residual = 4.12616e-07, No Iterations 0
smoothSolver:  Solving for Uy, Initial residual = 1.16583e-06, Final residual = 1.16583e-06, No Iterations 0
DICPCG:  Solving for p, Initial residual = 1.63918e-06, Final residual = 8.26787e-07, No Iterations 13
time step continuity errors : sum local = 1.32896e-09, global = 1.39959e-18, cumulative = 1.17805e-17
DICPCG:  Solving for p, Initial residual = 1.53131e-06, Final residual = 9.97755e-07, No Iterations 7
time step continuity errors : sum local = 1.59067e-09, global = 1.54684e-19, cumulative = 1.19352e-17
ExecutionTime = 23.02 s  ClockTime = 23 s

Time = 0.997

Courant Number mean: 1.48029 max: 6.24765
smoothSolver:  Solving for Ux, Initial residual = 4.34667e-07, Final residual = 4.34667e-07, No Iterations 0
smoothSolver:  Solving for Uy, Initial residual = 1.05933e-06, Final residual = 1.05933e-06, No Iterations 0
DICPCG:  Solving for p, Initial residual = 1.86762e-06, Final residual = 9.52129e-07, No Iterations 17
time step continuity errors : sum local = 1.50767e-09, global = 1.78915e-19, cumulative = 1.21141e-17
DICPCG:  Solving for p, Initial residual = 1.75626e-06, Final residual = 9.33935e-07, No Iterations 8
time step continuity errors : sum local = 1.46642e-09, global = 1.36206e-20, cumulative = 1.21277e-17
ExecutionTime = 23.02 s  ClockTime = 23 s

Time = 0.9975

Courant Number mean: 1.48029 max: 6.24765
smoothSolver:  Solving for Ux, Initial residual = 5.20997e-07, Final residual = 5.20997e-07, No Iterations 0
smoothSolver:  Solving for Uy, Initial residual = 8.45315e-07, Final residual = 8.45315e-07, No Iterations 0
DICPCG:  Solving for p, Initial residual = 1.70808e-06, Final residual = 8.87553e-07, No Iterations 4
time step continuity errors : sum local = 1.3945e-09, global = -1.10109e-18, cumulative = 1.10266e-17
DICPCG:  Solving for p, Initial residual = 1.65268e-06, Final residual = 9.3714e-07, No Iterations 2
time step continuity errors : sum local = 1.47063e-09, global = 3.37722e-19, cumulative = 1.13644e-17
ExecutionTime = 23.02 s  ClockTime = 23 s

Time = 0.998

Courant Number mean: 1.48029 max: 6.24765
smoothSolver:  Solving for Ux, Initial residual = 5.1338e-07, Final residual = 5.1338e-07, No Iterations 0
smoothSolver:  Solving for Uy, Initial residual = 8.51253e-07, Final residual = 8.51253e-07, No Iterations 0
DICPCG:  Solving for p, Initial residual = 1.75828e-06, Final residual = 9.15161e-07, No Iterations 17
time step continuity errors : sum local = 1.46525e-09, global = -3.11082e-19, cumulative = 1.10533e-17
DICPCG:  Solving for p, Initial residual = 1.68563e-06, Final residual = 9.87633e-07, No Iterations 9
time step continuity errors : sum local = 1.57874e-09, global = -2.9787e-19, cumulative = 1.07554e-17
ExecutionTime = 23.03 s  ClockTime = 23 s

Time = 0.9985

Courant Number mean: 1.48029 max: 6.24765
smoothSolver:  Solving for Ux, Initial residual = 4.09045e-07, Final residual = 4.09045e-07, No Iterations 0
smoothSolver:  Solving for Uy, Initial residual = 1.11542e-06, Final residual = 1.11542e-06, No Iterations 0
DICPCG:  Solving for p, Initial residual = 1.84482e-06, Final residual = 8.52328e-07, No Iterations 19
time step continuity errors : sum local = 1.35813e-09, global = -3.39674e-19, cumulative = 1.04157e-17
DICPCG:  Solving for p, Initial residual = 1.55266e-06, Final residual = 9.71802e-07, No Iterations 4
time step continuity errors : sum local = 1.53026e-09, global = -9.2811e-19, cumulative = 9.48762e-18
ExecutionTime = 23.03 s  ClockTime = 23 s

Time = 0.999

Courant Number mean: 1.48029 max: 6.24765
smoothSolver:  Solving for Ux, Initial residual = 5.18437e-07, Final residual = 5.18437e-07, No Iterations 0
smoothSolver:  Solving for Uy, Initial residual = 8.58603e-07, Final residual = 8.58603e-07, No Iterations 0
DICPCG:  Solving for p, Initial residual = 1.77423e-06, Final residual = 8.69594e-07, No Iterations 10
time step continuity errors : sum local = 1.37093e-09, global = -3.69881e-19, cumulative = 9.11774e-18
DICPCG:  Solving for p, Initial residual = 1.67764e-06, Final residual = 9.4924e-07, No Iterations 6
time step continuity errors : sum local = 1.50159e-09, global = -2.1375e-19, cumulative = 8.90399e-18
ExecutionTime = 23.04 s  ClockTime = 23 s

Time = 0.9995

Courant Number mean: 1.48029 max: 6.24765
smoothSolver:  Solving for Ux, Initial residual = 4.82885e-07, Final residual = 4.82885e-07, No Iterations 0
smoothSolver:  Solving for Uy, Initial residual = 9.25626e-07, Final residual = 9.25626e-07, No Iterations 0
DICPCG:  Solving for p, Initial residual = 1.74113e-06, Final residual = 9.34357e-07, No Iterations 3
time step continuity errors : sum local = 1.4805e-09, global = 7.61765e-19, cumulative = 9.66576e-18
DICPCG:  Solving for p, Initial residual = 1.73564e-06, Final residual = 9.15741e-07, No Iterations 2
time step continuity errors : sum local = 1.45129e-09, global = -2.04267e-19, cumulative = 9.46149e-18
ExecutionTime = 23.04 s  ClockTime = 23 s

Time = 1

Courant Number mean: 1.48029 max: 6.24765
smoothSolver:  Solving for Ux, Initial residual = 4.74354e-07, Final residual = 4.74354e-07, No Iterations 0
smoothSolver:  Solving for Uy, Initial residual = 9.20631e-07, Final residual = 9.20631e-07, No Iterations 0
DICPCG:  Solving for p, Initial residual = 1.80475e-06, Final residual = 9.11574e-07, No Iterations 2
time step continuity errors : sum local = 1.44195e-09, global = -1.64248e-18, cumulative = 7.81901e-18
DICPCG:  Solving for p, Initial residual = 1.6673e-06, Final residual = 8.38676e-07, No Iterations 9
time step continuity errors : sum local = 1.3256e-09, global = -9.60826e-19, cumulative = 6.85818e-18
ExecutionTime = 23.06 s  ClockTime = 23 s

End

